*Heading
** Job name: 2-Viadukt Model name: Viadukt-del
** Generated by: Abaqus/CAE 2022
*Preprint, echo=NO, model=NO, history=NO, contact=NO
**
** PARTS
**
*Part, name=Part-1
*Node
      1,   2.46000004, 0.00771891838
      2,   2.45786047, 0.0160000008
      3,     2.101161, 0.0160000008
      4,   2.08516097, 0.0160000008
      5,   1.57921708, 0.0160000008
      6,   1.56869626, 0.0160000008
      7,   1.13130367, 0.0160000008
      8,   1.12078285, 0.0160000008
      9,   0.67921716, 0.0160000008
     10,  0.668696284, 0.0160000008
     11,  0.231303692, 0.0160000008
     12,  0.220782861, 0.0160000008
     13,           0., 0.0160000008
     14, -0.220782861, 0.0160000008
     15, -0.231303692, 0.0160000008
     16, -0.668696284, 0.0160000008
     17,  -0.67921716, 0.0160000008
     18,  -1.12078285, 0.0160000008
     19,  -1.13130367, 0.0160000008
     20,  -1.56869626, 0.0160000008
** ... 13691 like lines cut
*Element, type=WARP2D4
  1,   1,   2, 157, 508
  2, 508, 157, 158, 507
  3, 507, 158, 159, 506
  4, 506, 159, 160, 505
  5, 505, 160, 161, 504
  6, 504, 161, 162, 503
  7, 503, 162, 163, 502
  8, 502, 163, 164, 501
  9, 501, 164, 165, 500
 10, 500, 165, 166, 499
 11, 499, 166, 167, 498
 12, 498, 167, 168, 497
 13, 497, 168, 169, 496
 14, 496, 169, 170, 495
 15, 495, 170, 171, 494
 16, 494, 171, 172, 493
 17, 493, 172, 173, 492
 18, 492, 173,   3, 491
 19, 491,   3,   4, 490
 20, 490,   4, 174, 489
** ... 11574 like lines cut
*Element, type=WARP2D3
434, 980, 970, 971
452,  992, 1007, 1008
470, 1025, 1040, 1041
515, 1120, 1127, 1128
525, 1146, 1136, 1137
609, 1296, 1303, 1304
610, 1323,   71,   72
611, 1344, 1343,   73
668, 1389, 1404, 1405
686, 1439, 1421, 1422
704, 1455, 1470, 1471
722, 1505, 1487, 1488
741, 1538, 1520, 1521
759, 1571, 1553, 1554
770, 1583,   95,   94
780, 1600, 1607, 1608
790, 1617, 1624, 1625
800, 1634, 1641, 1642
810, 1651, 1658, 1659
1598, 3205, 3187, 3188
** ... 22 like lines cut
*Nset, nset=Betong
    70,    71,   121,   122,   139,   156,  1309,  1310,  1311,  1312,  1313,  1314,  1315,  1316,  1317,  1318
  1319,  1320,  1321,  1322,  1323,  2172,  2173,  2174,  2175,  2176,  2177,  2178,  2179,  2180,  2181,  2182
  2183,  2184,  2185,  2186,  2187,  2188,  2189,  2190,  2191,  2192,  2193,  2194,  2195,  2196,  2197,  2198
  2199,  2200,  2201,  2202,  2203,  2204,  2205,  2206,  2207,  2208,  2209,  2210,  2211,  2212,  2213,  2214
  2215,  2216,  2217,  2218,  2219,  2220,  2221,  2222,  2223,  2224,  2225,  2226,  2227,  2228,  2229,  2230
  2231,  2232,  2233,  2234,  2235,  2236,  2237,  2238,  2239,  2240,  2241,  2242,  2243,  2244,  2245,  2246
  2247,  2248,  2249,  2250,  2251,  2252,  2253,  2254,  2255,  2256,  2257,  2258,  2259,  2260,  2261,  2262
  2263,  2264,  2265,  2266,  2267,  2268,  2269,  2270,  2271,  2272,  2273,  2274,  2275,  2276,  2277,  2278
  2279,  2280,  2281,  2282,  2283,  2284,  2285,  2286,  2287,  2288,  2289,  2290,  2291,  2292,  2293,  2294
  2295,  2296,  2297,  2298,  2299,  2300,  2301,  2302,  2303,  2304,  2305,  2306,  2307,  2308,  2309,  2310
  2311,  2312,  2313,  2314,  2315,  2316,  2317,  2318,  2319,  2320,  2321,  2322,  2323,  2324,  2325,  2326
  2327,  2328,  2329,  2330,  2331,  2332,  2333,  2334,  2335,  2336,  2337,  2338,  2339,  2340,  2341,  2342
  2343,  2344,  2345,  2346,  2347,  2348,  2349,  2350,  2351,  2352,  2353,  2354,  2355,  2356,  2357,  2358
  2359,  2360,  2361,  2362,  2363,  2364,  2365,  2366,  2367,  2368,  2369,  2370,  2371,  2372,  2373,  2374
  2375,  2376,  2377,  2378,  2379,  2380,  2381,  2382,  2383,  2384,  2385,  2386,  2387,  2388,  2389,  2390
  2391,  2392,  2393,  2394,  2395,  2396,  2397,  2398,  2399,  2400,  2401,  2402,  2403,  2404,  2405,  2406
  2407,  2408,  2409,  2410,  2411,  2412,  2413,  2414,  2415,  2416,  2417,  2418,  2419,  2420,  2421,  2422
  2423,  2424,  2425,  2426,  2427,  2428,  2429,  2430,  2431,  2432,  2433,  2434,  2435,  2436,  2437,  2438
  2439,  2440,  2441,  2442,  2443,  2444,  2445,  2446,  2447,  2448,  2449,  2450,  2451,  2452,  2453,  2454
  2455,  2456,  2457,  2458,  2459,  2460,  2461,  2462,  2463,  2464,  2465,  2466,  2467,  2468,  2469,  2470
** ... 605 like lines cut
*Elset, elset=Betong, generate
  2155,  11636,      1
*Nset, nset=Stl
    1,    2,    3,    4,    5,    6,    7,    8,    9,   10,   11,   12,   13,   14,   15,   16
   17,   18,   19,   20,   21,   22,   23,   24,   25,   26,   27,   28,   29,   30,   31,   32
   33,   34,   35,   36,   37,   38,   39,   40,   41,   42,   43,   44,   45,   46,   47,   48
   49,   50,   51,   52,   53,   54,   55,   56,   57,   58,   59,   60,   61,   62,   63,   64
   65,   66,   67,   68,   69,   70,   71,   72,   73,   74,   75,   76,   77,   78,   79,   80
   81,   82,   83,   84,   85,   86,   87,   88,   89,   90,   91,   92,   93,   94,   95,   96
   97,   98,   99,  100,  101,  102,  103,  104,  105,  106,  107,  108,  109,  110,  111,  112
  113,  114,  115,  116,  117,  118,  119,  120,  121,  122,  123,  124,  125,  126,  127,  128
  129,  130,  131,  132,  133,  134,  135,  136,  137,  138,  139,  140,  141,  142,  143,  144
  145,  146,  147,  148,  149,  150,  151,  152,  153,  154,  155,  157,  158,  159,  160,  161
  162,  163,  164,  165,  166,  167,  168,  169,  170,  171,  172,  173,  174,  175,  176,  177
  178,  179,  180,  181,  182,  183,  184,  185,  186,  187,  188,  189,  190,  191,  192,  193
  194,  195,  196,  197,  198,  199,  200,  201,  202,  203,  204,  205,  206,  207,  208,  209
  210,  211,  212,  213,  214,  215,  216,  217,  218,  219,  220,  221,  222,  223,  224,  225
  226,  227,  228,  229,  230,  231,  232,  233,  234,  235,  236,  237,  238,  239,  240,  241
  242,  243,  244,  245,  246,  247,  248,  249,  250,  251,  252,  253,  254,  255,  256,  257
  258,  259,  260,  261,  262,  263,  264,  265,  266,  267,  268,  269,  270,  271,  272,  273
  274,  275,  276,  277,  278,  279,  280,  281,  282,  283,  284,  285,  286,  287,  288,  289
  290,  291,  292,  293,  294,  295,  296,  297,  298,  299,  300,  301,  302,  303,  304,  305
  306,  307,  308,  309,  310,  311,  312,  313,  314,  315,  316,  317,  318,  319,  320,  321
** ... 246 like lines cut
*Elset, elset=Stl, generate
    1,  2154,     1
** Section: Steel
*Solid Section, elset=Stl, material=Steel
,
** Section: Betong
*Solid Section, elset=Betong, material=Concrete
,
*End Part
**  
**
** ASSEMBLY
**
*Assembly, name=Assembly
**  
*Instance, name=Part-1-1, part=Part-1
*End Instance
**  
*End Assembly
** 
** MATERIALS
** 
*Material, name=Concrete
*Density
2500.,
*Elastic
2.7e+10, 0.2
*Material, name=Steel
*Density
7850.,
*Elastic
2.1e+11, 0.3
** ----------------------------------------------------------------
** 
** STEP: Step-1
** 
*Step, name=Step-1, nlgeom=NO
*Beam Section Generate
*End Step
