*HEADING
Grenland Bridge - Dynamic analysis
**
*PREPRINT, ECHO=YES, MODEL=YES, HISTORY=YES
**
*MATERIAL, NAME=S355
*DENSITY
7850
*ELASTIC, TYPE=ISOTROPIC
2.1E+11, 0.3
**
*MATERIAL, NAME=B45
*DENSITY
2500
*ELASTIC, TYPE=ISOTROPIC
0.27E+11, 0.2
**
*MATERIAL, NAME=DUMMY_SECTION
*DENSITY
0
*ELASTIC, TYPE=ISOTROPIC
0.1, 0
**
*MATERIAL, NAME=CABLE
*DENSITY
7850
*ELASTIC, TYPE=ISOTROPIC
1.6E+11, 0.3
**
*PART, NAME=BRIDGE
*END PART
**
*ASSEMBLY, NAME=BRIDGE_ASSEMBLY
**
*INSTANCE, NAME=BRIDGE_1, PART=BRIDGE
*NODE, NSET=BRIDGE_DECK_NODES
1, 0, 0, 51
2, 1, 0, 51
3, 2, 0, 51
4, 3, 0, 51
5, 4, 0, 51
6, 5, 0, 51
7, 6, 0, 51
8, 7, 0, 51
9, 8, 0, 51
10, 9, 0, 51
11, 10, 0, 51
12, 11, 0, 51
13, 12, 0, 51
14, 13, 0, 51
15, 14, 0, 51
16, 15, 0, 51
17, 16, 0, 51
18, 17, 0, 51
19, 18, 0, 51
20, 19, 0, 51
** ... 339 like lines cut
**
*NODE, NSET=MAIN_TOWER_WEST
610, 67, -9.5, 0
611, 67, -9.47, 1
612, 67, -9.45, 2
613, 67, -9.42, 3
614, 67, -9.39, 4
615, 67, -9.36, 5
616, 67, -9.34, 6
617, 67, -9.31, 7
618, 67, -9.28, 8
619, 67, -9.26, 9
620, 67, -9.23, 10
621, 67, -9.2, 11
622, 67, -9.17, 12
623, 67, -9.15, 13
624, 67, -9.12, 14
625, 67, -9.09, 15
626, 67, -9.07, 16
627, 67, -9.04, 17
628, 67, -9.01, 18
629, 67, -8.98, 19
** ... 145 like lines cut
**
*NODE, NSET=MAIN_TOWER_EAST
775, 67, 9.5, 0
776, 67, 9.47, 1
777, 67, 9.45, 2
778, 67, 9.42, 3
779, 67, 9.39, 4
780, 67, 9.36, 5
781, 67, 9.34, 6
782, 67, 9.31, 7
783, 67, 9.28, 8
784, 67, 9.26, 9
785, 67, 9.23, 10
786, 67, 9.2, 11
787, 67, 9.17, 12
788, 67, 9.15, 13
789, 67, 9.12, 14
790, 67, 9.09, 15
791, 67, 9.07, 16
792, 67, 9.04, 17
793, 67, 9.01, 18
794, 67, 8.98, 19
** ... 145 like lines cut
**
*NODE, NSET=MAIN_TOWER_LOWER_COUPLING
940, 67, -7, 51
941, 67, -6, 51
942, 67, -5, 51
943, 67, -4, 51
944, 67, -3, 51
945, 67, -2, 51
946, 67, -1, 51
947, 67, 1, 51
948, 67, 2, 51
949, 67, 3, 51
950, 67, 4, 51
951, 67, 5, 51
952, 67, 6, 51
953, 67, 7, 51
**
*NODE, NSET=MAIN_TOWER_MID_COUPLING
954, 67, -6, 93
955, 67, -5, 93
956, 67, -4, 93
957, 67, -3, 93
958, 67, -2, 93
959, 67, -1, 93
960, 67, 0, 93
961, 67, 1, 93
962, 67, 2, 93
963, 67, 3, 93
964, 67, 4, 93
965, 67, 5, 93
966, 67, 6, 93
**
*NODE, NSET=MAIN_TOWER_UPPER_COUPLING
967, 67, -5, 130
968, 67, -4, 130
969, 67, -3, 130
970, 67, -2, 130
971, 67, -1, 130
972, 67, 0, 130
973, 67, 1, 130
974, 67, 2, 130
975, 67, 3, 130
976, 67, 4, 130
977, 67, 5, 130
*NODE, NSET=CABLE_ANCHOR_WEST
1163, 0, -6, 51
1164, -5, -6, 58
1165, -10, -6, 65
1166, -15, -6, 72
1167, -20, -6, 79
1168, -25, -6, 86
**
*NODE, NSET=CABLE_ANCHOR_EAST
1169, 0, 6, 51
1170, -5, 6, 58
1171, -10, 6, 65
1172, -15, 6, 72
1173, -20, 6, 79
1174, -25, 6, 86
**
*NODE, NSET=CABLE_ANCHOR_WEST_BRIDGE
1175, 16, -5.8, 51
1176, 40, -5.8, 51
1177, 94, -5.8, 51
1178, 114, -5.8, 51
1179, 134, -5.8, 51
1180, 154, -5.8, 51
1181, 174, -5.8, 51
1182, 194, -5.8, 51
1183, 214, -5.8, 51
1184, 234, -5.8, 51
1185, 254, -5.8, 51
1186, 274, -5.8, 51
1187, 294, -5.8, 51
1188, 314, -5.8, 51
1189, 334, -5.8, 51
**
*NODE, NSET=CABLE_ANCHOR_EAST_BRIDGE
1190, 16, 5.8, 51
1191, 40, 5.8, 51
1192, 94, 5.8, 51
1193, 114, 5.8, 51
1194, 134, 5.8, 51
1195, 154, 5.8, 51
1196, 174, 5.8, 51
1197, 194, 5.8, 51
1198, 214, 5.8, 51
1199, 234, 5.8, 51
1200, 254, 5.8, 51
1201, 274, 5.8, 51
1202, 294, 5.8, 51
1203, 314, 5.8, 51
1204, 334, 5.8, 51
**
*ELEMENT, TYPE=B31, ELSET=BRIDGE_DECK_ELEMENTS
1, 1, 2
2, 2, 3
3, 3, 4
4, 4, 5
5, 5, 6
6, 6, 7
7, 7, 8
8, 8, 9
9, 9, 10
10, 10, 11
11, 11, 12
12, 12, 13
13, 13, 14
14, 14, 15
15, 15, 16
16, 16, 17
17, 17, 18
18, 18, 19
19, 19, 20
20, 20, 21
** ... 338 like lines cut
**
*ELEMENT, TYPE=B31, ELSET=MAIN_TOWER_WEST_ELEMENTS
609, 610, 611
610, 611, 612
611, 612, 613
612, 613, 614
613, 614, 615
614, 615, 616
615, 616, 617
616, 617, 618
617, 618, 619
618, 619, 620
619, 620, 621
620, 621, 622
621, 622, 623
622, 623, 624
623, 624, 625
624, 625, 626
625, 626, 627
626, 627, 628
627, 628, 629
628, 629, 630
** ... 144 like lines cut
*ELEMENT, TYPE=B31, ELSET=MAIN_TOWER_EAST_ELEMENTS
773, 775, 776
774, 776, 777
775, 777, 778
776, 778, 779
777, 779, 780
778, 780, 781
779, 781, 782
780, 782, 783
781, 783, 784
782, 784, 785
783, 785, 786
784, 786, 787
785, 787, 788
786, 788, 789
787, 789, 790
788, 790, 791
789, 791, 792
790, 792, 793
791, 793, 794
792, 794, 795
** ... 144 like lines cut
**
*ELEMENT, TYPE=B31, ELSET=MAIN_TOWER_LOWER_COUPLING_ELEMENTS
937, 661, 940
938, 940, 941
939, 941, 942
940, 942, 943
941, 943, 944
942, 944, 945
943, 945, 946
944, 946, 68
945, 68, 947
946, 947, 948
947, 948, 949
948, 949, 950
949, 950, 951
950, 951, 952
951, 952, 953
952, 953, 826
**
*ELEMENT, TYPE=B31, ELSET=MAIN_TOWER_MID_COUPLING_ELEMENTS
953, 703, 954
954, 954, 955
955, 955, 956
956, 956, 957
957, 957, 958
958, 958, 959
959, 959, 960
960, 960, 961
961, 961, 962
962, 962, 963
963, 963, 964
964, 964, 965
965, 965, 966
966, 966, 868
**
*ELEMENT, TYPE=B31, ELSET=MAIN_TOWER_UPPER_COUPLING_ELEMENTS
967, 740, 967
968, 967, 968
969, 968, 969
971, 969, 970
972, 970, 971
973, 971, 972
974, 972, 973
975, 973, 974
976, 974, 975
977, 975, 976
978, 976, 977
979, 977, 905
*ELEMENT, TYPE=B31, ELSET=WEST_NORTH_CABLE_ELEMENTS
1165, 1168, 771
1166, 1167, 767
1167, 1166, 763
1168, 1165, 759
1169, 1164, 755
1170, 1163, 751
1171, 1175, 747
1172, 1176, 743
**
*ELEMENT, TYPE=B31, ELSET=WEST_SOUTH_CABLE_ELEMENTS
1173, 771, 1189
1174, 769, 1188
1175, 767, 1187
1176, 765, 1186
1177, 763, 1185
1178, 761, 1184
1179, 759, 1183
1180, 757, 1182
1181, 755, 1181
1182, 753, 1180
1183, 751, 1179
1184, 749, 1178
1185, 747, 1177
**
*ELEMENT, TYPE=B31, ELSET=EAST_NORTH_CABLE_ELEMENTS
1186, 1174, 936
1187, 1173, 932
1188, 1172, 928
1189, 1171, 924
1190, 1170, 920
1191, 1169, 916
1192, 1190, 912
1193, 1191, 908
**
*ELEMENT, TYPE=B31, ELSET=EAST_SOUTH_CABLE_ELEMENTS
1194, 936, 1204
1195, 934, 1203
1196, 932, 1202
1197, 930, 1201
1198, 928, 1200
1199, 926, 1199
1200, 924, 1198
1201, 922, 1197
1202, 920, 1196
1203, 918, 1195
1204, 916, 1194
1205, 914, 1193
1206, 912, 1192
**
**
*ELSET, ELSET=CABLE_BRIDGE_DECK_ELEMENTS
1
2
3
4
5
6
7
8
9
10
11
12
13
14
15
16
17
18
19
20
** ... 338 like lines cut
*ELSET, ELSET=MAIN_TOWER_WEST_BOTTOM_ELEMENTS
609
610
611
612
613
614
615
616
617
618
619
620
621
622
623
624
625
626
627
628
** ... 30 like lines cut
*ELSET, ELSET=MAIN_TOWER_WEST_MID_ELEMENTS
659
660
661
662
663
664
665
666
667
668
669
670
671
672
673
674
675
676
677
678
** ... 23 like lines cut
*ELSET, ELSET=MAIN_TOWER_WEST_UPPER_ELEMENTS
702
703
704
705
706
707
708
709
710
711
712
713
714
715
716
717
718
719
720
721
** ... 17 like lines cut
*ELSET, ELSET=MAIN_TOWER_WEST_TOP_ELEMENTS
739
740
741
742
743
744
745
746
747
748
749
750
751
752
753
754
755
756
757
758
** ... 14 like lines cut
*ELSET, ELSET=MAIN_TOWER_EAST_BOTTOM_ELEMENTS
773
774
775
776
777
778
779
780
781
782
783
784
785
786
787
788
789
790
791
792
** ... 30 like lines cut
*ELSET, ELSET=MAIN_TOWER_EAST_MID_ELEMENTS
823
824
825
826
827
828
829
830
831
832
833
834
835
836
837
838
839
840
841
842
** ... 23 like lines cut
*ELSET, ELSET=MAIN_TOWER_EAST_UPPER_ELEMENTS
866
867
868
869
870
871
872
873
874
875
876
877
878
879
880
881
882
883
884
885
** ... 17 like lines cut
*ELSET, ELSET=MAIN_TOWER_EAST_TOP_ELEMENTS
903
904
905
906
907
908
909
910
911
912
913
914
915
916
917
918
919
920
921
922
** ... 14 like lines cut
**
**
*NODE, NSET=ACC_METER_NODES
1205, 29, -5.8, 51
1206, 29, 5.8, 51
*NSET, NSET=CABLE_ANCHOR_WEST
1205
1175
1176
1177
1178
1179
1180
1181
1182
1183
1184
1185
1186
1187
1188
1189
*NSET, NSET=CABLE_ANCHOR_EAST
1206
1190
1191
1192
1193
1194
1195
1196
1197
1198
1199
1200
1201
1202
1203
1204
*NSET, NSET=CABLE_ANCHOR_BRIDGE
17
30
41
95
115
135
155
175
195
215
235
255
275
295
315
335
**
*SURFACE, TYPE=NODE, NAME=CABLE_ANCHOR_WEST_SRF
CABLE_ANCHOR_WEST, 1
*SURFACE, TYPE=NODE, NAME=CABLE_ANCHOR_EAST_SRF
CABLE_ANCHOR_EAST, 1
*SURFACE, TYPE=NODE, NAME=CABLE_ANCHOR_BRIDGE
CABLE_ANCHOR_BRIDGE, 1
**
*TIE, NAME=CABLE_ANCHOR_CONNECTION_WEST, ADJUST=NO, POSITION TOLERANCE=5.8
CABLE_ANCHOR_WEST_SRF, CABLE_ANCHOR_BRIDGE
*TIE, NAME=CABLE_ANCHOR_CONNECTION_EAST, ADJUST=NO, POSITION TOLERANCE=5.8
CABLE_ANCHOR_EAST_SRF, CABLE_ANCHOR_BRIDGE
**
*BEAM GENERAL SECTION, SECTION=MESHED, ELSET=CABLE_BRIDGE_DECK_ELEMENTS
0, 1, 0
*INCLUDE, INPUT=1-Skrastag.bsp
**
**
*BEAM SECTION, ELSET=MAIN_TOWER_WEST_BOTTOM_ELEMENTS, MATERIAL=B45, SECTION=BOX
7.129, 2.5, 0.5, 0.5, 0.5, 0.5
1, 0, 0
**
*BEAM SECTION, ELSET=MAIN_TOWER_WEST_MID_ELEMENTS, MATERIAL=B45, SECTION=BOX
5.719, 2.5, 0.5, 0.5, 0.5, 0.5
1, 0, 0
**
*BEAM SECTION, ELSET=MAIN_TOWER_WEST_UPPER_ELEMENTS, MATERIAL=B45, SECTION=BOX
4.841, 2.5, 0.5, 0.5, 0.5, 0.5
1, 0, 0
**
*BEAM SECTION, ELSET=MAIN_TOWER_WEST_TOP_ELEMENTS, MATERIAL=B45, SECTION=BOX
4.5, 2.5, 0.5, 0.5, 0.5, 0.5
1, 0, 0
**
*BEAM SECTION, ELSET=MAIN_TOWER_EAST_BOTTOM_ELEMENTS, MATERIAL=B45, SECTION=BOX
7.129, 2.5, 0.5, 0.5, 0.5, 0.5
1, 0, 0
**
*BEAM SECTION, ELSET=MAIN_TOWER_EAST_MID_ELEMENTS, MATERIAL=B45, SECTION=BOX
5.719, 2.5, 0.5, 0.5, 0.5, 0.5
1, 0, 0
**
*BEAM SECTION, ELSET=MAIN_TOWER_EAST_UPPER_ELEMENTS, MATERIAL=B45, SECTION=BOX
4.841, 2.5, 0.5, 0.5, 0.5, 0.5
1, 0, 0
**
*BEAM SECTION, ELSET=MAIN_TOWER_EAST_TOP_ELEMENTS, MATERIAL=B45, SECTION=BOX
4.5, 2.5, 0.5, 0.5, 0.5, 0.5
1, 0, 0
**
*BEAM SECTION, ELSET=MAIN_TOWER_LOWER_COUPLING_ELEMENTS, MATERIAL=B45, SECTION=BOX
5, 4.33, 0.3, 0.6, 0.3, 0.6
**
*BEAM SECTION, ELSET=MAIN_TOWER_MID_COUPLING_ELEMENTS, MATERIAL=B45, SECTION=BOX
3.5, 3.22, 0.3, 0.6, 0.3, 0.6
**
*BEAM SECTION, ELSET=MAIN_TOWER_UPPER_COUPLING_ELEMENTS, MATERIAL=B45, SECTION=BOX
3.5, 2.5, 0.3, 0.6, 0.3, 0.6
**
*BEAM SECTION, ELSET=WEST_NORTH_CABLE_ELEMENTS, MATERIAL=S355, SECTION=CIRC
0.05
**
*BEAM SECTION, ELSET=WEST_SOUTH_CABLE_ELEMENTS, MATERIAL=S355, SECTION=CIRC
0.05
**
*BEAM SECTION, ELSET=EAST_NORTH_CABLE_ELEMENTS, MATERIAL=S355, SECTION=CIRC
0.05
**
*BEAM SECTION, ELSET=EAST_SOUTH_CABLE_ELEMENTS, MATERIAL=S355, SECTION=CIRC
0.05
**
*END INSTANCE
**
**
*INSTANCE, NAME=BRIDGE_2, PART=BRIDGE
*NODE, NSET=BRIDGE_DECK_NODES
359, 358, 0, 51 
360, 359, 0, 51
361, 360, 0, 51
362, 361, 0, 51
363, 362, 0, 51
364, 363, 0, 51
365, 364, 0, 51
366, 365, 0, 51
367, 366, 0, 51
368, 367, 0, 51
369, 368, 0, 51
370, 369, 0, 51
371, 370, 0, 51
372, 371, 0, 51
373, 372, 0, 51
374, 373, 0, 51
375, 374, 0, 51
376, 375, 0, 51
377, 376, 0, 51
378, 377, 0, 51
** ... 231 like lines cut
**
*NODE, NSET=COLUMN_3
978, 372, 0, 1
979, 372, 0, 2
980, 372, 0, 3
981, 372, 0, 4
982, 372, 0, 5
983, 372, 0, 6
984, 372, 0, 7
985, 372, 0, 8
986, 372, 0, 9
987, 372, 0, 10
988, 372, 0, 11
989, 372, 0, 12
990, 372, 0, 13
991, 372, 0, 14
992, 372, 0, 15
993, 372, 0, 16
994, 372, 0, 17
995, 372, 0, 18
996, 372, 0, 19
997, 372, 0, 20
** ... 30 like lines cut
**
*NODE, NSET=COLUMN_4
1028, 420, 0, 1
1029, 420, 0, 2
1030, 420, 0, 3
1031, 420, 0, 4
1032, 420, 0, 5
1033, 420, 0, 6
1034, 420, 0, 7
1035, 420, 0, 8
1036, 420, 0, 9
1037, 420, 0, 10
1038, 420, 0, 11
1039, 420, 0, 12
1040, 420, 0, 13
1041, 420, 0, 14
1042, 420, 0, 15
1043, 420, 0, 16
1044, 420, 0, 17
1045, 420, 0, 18
1046, 420, 0, 19
1047, 420, 0, 20
** ... 30 like lines cut
**
*NODE, NSET=COLUMN_5
1078, 468, 0, 11
1079, 468, 0, 12
1080, 468, 0, 13
1081, 468, 0, 14
1082, 468, 0, 15
1083, 468, 0, 16
1084, 468, 0, 17
1085, 468, 0, 18
1086, 468, 0, 19
1087, 468, 0, 20
1088, 468, 0, 21
1089, 468, 0, 22
1090, 468, 0, 23
1091, 468, 0, 24
1092, 468, 0, 25
1093, 468, 0, 26
1094, 468, 0, 27
1095, 468, 0, 28
1096, 468, 0, 29
1097, 468, 0, 30
** ... 20 like lines cut
**
*NODE, NSET=COLUMN_6
1118, 516, 0, 24
1119, 516, 0, 25
1120, 516, 0, 26
1121, 516, 0, 27
1122, 516, 0, 28
1123, 516, 0, 29
1124, 516, 0, 30
1125, 516, 0, 31
1126, 516, 0, 32
1127, 516, 0, 33
1128, 516, 0, 34
1129, 516, 0, 35
1130, 516, 0, 36
1131, 516, 0, 37
1132, 516, 0, 38
1133, 516, 0, 39
1134, 516, 0, 40
1135, 516, 0, 41
1136, 516, 0, 42
1137, 516, 0, 43
** ... 7 like lines cut
**
*NODE, NSET=COLUMN_7
1145, 564, 0, 33
1146, 564, 0, 34
1147, 564, 0, 35
1148, 564, 0, 36
1149, 564, 0, 37
1150, 564, 0, 38
1151, 564, 0, 39
1152, 564, 0, 40
1153, 564, 0, 41
1154, 564, 0, 42
1155, 564, 0, 43
1156, 564, 0, 44
1157, 564, 0, 45
1158, 564, 0, 46
1159, 564, 0, 47
1160, 564, 0, 48
1161, 564, 0, 49
1162, 564, 0, 50
**
*ELEMENT, TYPE=B31, ELSET=BRIDGE_DECK_ELEMENTS
359, 359, 360
360, 360, 361
361, 361, 362
362, 362, 363
363, 363, 364
364, 364, 365
365, 365, 366
366, 366, 367
367, 367, 368
368, 368, 369
369, 369, 370
370, 370, 371
371, 371, 372
372, 372, 373
373, 373, 374
374, 374, 375
375, 375, 376
376, 376, 377
377, 377, 378
378, 378, 379
** ... 230 like lines cut
**
*ELEMENT, TYPE=B31, ELSET=COLUMN_3_ELEMENTS
980, 978, 979
981, 979, 980
982, 980, 981
983, 981, 982
984, 982, 983
985, 983, 984
986, 984, 985
987, 985, 986
988, 986, 987
989, 987, 988
990, 988, 989
991, 989, 990
992, 990, 991
993, 991, 992
994, 992, 993
995, 993, 994
996, 994, 995
997, 995, 996
998, 996, 997
999, 997, 998
** ... 30 like lines cut
**
*ELEMENT, TYPE=B31, ELSET=COLUMN_4_ELEMENTS
1030, 1028, 1029
1031, 1029, 1030
1032, 1030, 1031
1033, 1031, 1032
1034, 1032, 1033
1035, 1033, 1034
1036, 1034, 1035
1037, 1035, 1036
1038, 1036, 1037
1039, 1037, 1038
1040, 1038, 1039
1041, 1039, 1040
1042, 1040, 1041
1043, 1041, 1042
1044, 1042, 1043
1045, 1043, 1044
1046, 1044, 1045
1047, 1045, 1046
1048, 1046, 1047
1049, 1047, 1048
** ... 30 like lines cut
**
*ELEMENT, TYPE=B31, ELSET=COLUMN_5_ELEMENTS
1080, 1078, 1079
1081, 1079, 1080
1082, 1080, 1081
1083, 1081, 1082
1084, 1082, 1083
1085, 1083, 1084
1086, 1084, 1085
1087, 1085, 1086
1088, 1086, 1087
1089, 1087, 1088
1090, 1088, 1089
1091, 1089, 1090
1092, 1090, 1091
1093, 1091, 1092
1094, 1092, 1093
1095, 1093, 1094
1096, 1094, 1095
1097, 1095, 1096
1098, 1096, 1097
1099, 1097, 1098
** ... 20 like lines cut
**
*ELEMENT, TYPE=B31, ELSET=COLUMN_6_ELEMENTS
1120, 1118, 1119
1121, 1119, 1120
1122, 1120, 1121
1123, 1121, 1122
1124, 1122, 1123
1125, 1123, 1124
1126, 1124, 1125
1127, 1125, 1126
1128, 1126, 1127
1129, 1127, 1128
1130, 1128, 1129
1131, 1129, 1130
1132, 1130, 1131
1133, 1131, 1132
1134, 1132, 1133
1135, 1133, 1134
1136, 1134, 1135
1137, 1135, 1136
1138, 1136, 1137
1139, 1137, 1138
** ... 7 like lines cut
**
*ELEMENT, TYPE=B31, ELSET=COLUMN_7_ELEMENTS
1147, 1145, 1146
1148, 1146, 1147
1149, 1147, 1148
1150, 1148, 1149
1151, 1149, 1150
1152, 1150, 1151
1153, 1151, 1152
1154, 1152, 1153
1155, 1153, 1154
1156, 1154, 1155
1157, 1155, 1156
1158, 1156, 1157
1159, 1157, 1158
1160, 1158, 1159
1161, 1159, 1160
1162, 1160, 1161
1163, 1161, 1162
1164, 1162, 565
**
**
*ELSET, ELSET=VIADUCT_BRIDGE_DECK_ELEMENTS
359
360
361
362
363
364
365
366
367
368
369
370
371
372
373
374
375
376
377
378
** ... 230 like lines cut
**
*NODE, NSET=ACC_METER_NODES
1163, 372, -5.8, 51
1164, 399, -5.8, 51
1165, 372, 5.8, 51
1166, 399, 5.8, 51
*NSET, NSET=ACC_METER_WEST
1163
1164
*NSET, NSET=ACC_METER_EAST
1165
1166
*NSET, NSET=ACC_METER_BRIDGE
373
400
**
*SURFACE, TYPE=NODE, NAME=ACC_METER_WEST_SRF
ACC_METER_WEST, 1
*SURFACE, TYPE=NODE, NAME=ACC_METER_EAST_SRF
ACC_METER_EAST, 1
*SURFACE, TYPE=NODE, NAME=ACC_METER_BRIDGE_SRF
ACC_METER_BRIDGE, 1
**
*TIE, NAME=CABLE_ANCHOR_CONNECTION_WEST, ADJUST=NO, POSITION TOLERANCE=5.8
ACC_METER_WEST_SRF, ACC_METER_BRIDGE_SRF
*TIE, NAME=CABLE_ANCHOR_CONNECTION_EAST, ADJUST=NO, POSITION TOLERANCE=5.8
ACC_METER_EAST_SRF, ACC_METER_BRIDGE_SRF
**
**
*BEAM GENERAL SECTION, SECTION=MESHED, ELSET=VIADUCT_BRIDGE_DECK_ELEMENTS
0, 1, 0
*INCLUDE, INPUT=2-Viadukt.bsp
**
*BEAM SECTION, ELSET=COLUMN_3_ELEMENTS, MATERIAL=B45, SECTION=RECT
5.388, 1.8
0, 1, 0
**
*BEAM SECTION, ELSET=COLUMN_4_ELEMENTS, MATERIAL=B45, SECTION=RECT
5.386, 1.8
0, 1, 0
**
*BEAM SECTION, ELSET=COLUMN_5_ELEMENTS, MATERIAL=B45, SECTION=RECT
5.27, 1.5
0, 1, 0
**
*BEAM SECTION, ELSET=COLUMN_6_ELEMENTS, MATERIAL=B45, SECTION=RECT
5.113, 1.3
0, 1, 0
**
*BEAM SECTION, ELSET=COLUMN_7_ELEMENTS, MATERIAL=B45, SECTION=RECT
5.007, 1.3
0, 1, 0
**
**
*END INSTANCE
**
*ELEMENT, TYPE=CONN3D2
1, BRIDGE_1.359, BRIDGE_2.359
*CONNECTOR SECTION, ELSET=CONNECTION, BEHAVIOR=CONNECTION_BEHAVIOR
CARTESIAN, ROTATION
"CONNECTION_ORIENTATION"
*ELSET, ELSET=CONNECTION
1
*ORIENTATION, NAME="CONNECTION_ORIENTATION"
1, 0, 0, 0, 1, 0
1, 0
**
*NSET, NSET=ACCELEROMETERS_1, INSTANCE=BRIDGE_1
1205
1206
1178
1193
1181
1196
1183
1198
1185
1200
1187
1202
1189
1204
740
905
*NSET, NSET=ACCELEROMETERS_2, INSTANCE=BRIDGE_2
1163
1164
1165
1166
**
*END ASSEMBLY
**
*CONNECTOR BEHAVIOR, NAME=CONNECTION_BEHAVIOR
*CONNECTOR ELASTICITY, COMPONENT=1
1
*CONNECTOR ELASTICITY, COMPONENT=2
1
*CONNECTOR ELASTICITY, COMPONENT=3
1
*CONNECTOR ELASTICITY, COMPONENT=4
1
*CONNECTOR ELASTICITY, COMPONENT=5
1
*CONNECTOR ELASTICITY, COMPONENT=6
1
**
*STEP, NAME=Static
Static analysis
*STATIC
1, 1, 1E-5, 1
**
*NSET, NSET=SUPPORT_NODES_NORTH, INSTANCE=BRIDGE_1
1
*NSET, NSET=SUPPORT_MAIN_TOWER, INSTANCE=BRIDGE_1
610, 775
*NSET, NSET=SUPPORT_CABLE_ANCHOR, INSTANCE=BRIDGE_1
1163, 1164, 1165, 1166, 1167, 1168, 1169, 1170, 1171, 1172, 1173, 1174
**
*NSET, NSET=SUPPORT_NODES_SOUTH, INSTANCE=BRIDGE_2
609
*NSET, NSET=SUPPORT_COLUMN_3, INSTANCE=BRIDGE_2
978
*NSET, NSET=SUPPORT_COLUMN_4, INSTANCE=BRIDGE_2
1028
*NSET, NSET=SUPPORT_COLUMN_5, INSTANCE=BRIDGE_2
1078
*NSET, NSET=SUPPORT_COLUMN_6, INSTANCE=BRIDGE_2
1118
*NSET, NSET=SUPPORT_COLUMN_7, INSTANCE=BRIDGE_2
1145
**
*BOUNDARY
SUPPORT_NODES_SOUTH, 1, 3, 0
SUPPORT_NODES_NORTH, 1, 6, 0
SUPPORT_MAIN_TOWER, 1, 6, 0
SUPPORT_COLUMN_3, 1, 6, 0
SUPPORT_COLUMN_4, 1, 6, 0
SUPPORT_COLUMN_5, 1, 6, 0
SUPPORT_COLUMN_6, 1, 6, 0
SUPPORT_COLUMN_7, 1, 6, 0
SUPPORT_CABLE_ANCHOR, 1, 3, 0
**
*DLOAD, OP=NEW
, GRAV, 9.81, 0, 0, -1
**
*OUTPUT, FIELD
*NODE OUTPUT
RF, U, UR
**
*OUTPUT, FIELD
*ELEMENT OUTPUT
SF
**
*END STEP
**
*STEP, NAME=Modal
Modal analysis
**
*FREQUENCY
86
**
*OUTPUT, FIELD
*NODE OUTPUT
U, UR
**
*END STEP