1

   Abaqus 2022                                  Date 16-Apr-2024   Time 05:22:37
   For use by NORGES TEKNISK NATURVITENSKAPELIGE UNIVERSITET under license from Dassault Systemes or its subsidiary.



                         The Abaqus Software is a product of:

                           Dassault Systemes SIMULIA Corp.
                           1301 Atwood Avenue, Suite 101W
                              Johnston, RI 02919, USA
 


                   The Abaqus Software is available only under license
                   from Dassault Systemes or its subsidiary and may be
                   used or reproduced only in accordance with the terms
                   of such license.
 
                          On machine Weberg 
                          you are authorized to run
                          Abaqus/Standard until 30-Sep-2024

                          Your site id is: 100000000001981 


 
                    For assistance or any other information you may
                    obtain contact information for your local office
                    from the world wide web at:

                      http://www.3ds.com/products/simulia/locations/

 
                * * * * * * * * * * * * * * * * * * * * * * * * * * * * * * 
                *                                                         * 
                *                   *****************                     * 
                *                   *  N O T I C E  *                     * 
                *                   *****************                     * 
                *                                                         * 
                *                                                         * 
                *                       Abaqus 2022                       * 
                *                                                         * 
                *          BUILD ID: 2021_09_15-19.57.30 176069           * 
                *                                                         * 
                *                                                         * 
                *  Please make sure you are using                         * 
                *  release Abaqus 2022 manuals                            * 
                *  plus the notes accompanying this release.              * 
                *                                                         * 
                *                                                         * 
                *                                                         * 
                *                                                         * 
                *                                                         * 
                *   This program may not be used for commercial purposes  * 
                *           without payment of a commercial fee.          * 
                *                                                         * 
                * * * * * * * * * * * * * * * * * * * * * * * * * * * * * * 


 



     PROCESSING PART, INSTANCE, AND ASSEMBLY INFORMATION
   *******************************************************


     END PROCESSING PART, INSTANCE, AND ASSEMBLY INFORMATION
   ***********************************************************

1

   Abaqus 2022                                  Date 16-Apr-2024   Time 05:22:37
   For use by NORGES TEKNISK NATURVITENSKAPELIGE UNIVERSITET under license from Dassault Systemes or its subsidiary.

                                                                                     

                                             A B A Q U S   I N P U T   E C H O


                    *Heading
                    Grenland Bridge - Dynamic analysis
                    *preprint, echo=YES, history=YES, model=YES
                    *material, name=S355
     LINE     5     *density
                    7850
                    *elastic, type=ISOTROPIC
                    2.1E+11, 0.3
                    *material, name=B45
     LINE    10     *density
                    2500
                    *elastic, type=ISOTROPIC
                    0.27E+11, 0.2
                    *material, name=DUMMY_SECTION
     LINE    15     *density
                    0
                    *elastic, type=ISOTROPIC
                    0.1, 0
                    *material, name=CABLE
     LINE    20     *density
                    7850
                    *elastic, type=ISOTROPIC
                    1.6E+11, 0.3
                    ** ----------------------------------------------------------------
     LINE    25     ** PART INSTANCE: BRIDGE_1
                    **
                    *Node
                    1, 0, 0, 51
                    2, 1, 0, 51
     LINE    30     3, 2, 0, 51
                    4, 3, 0, 51
                    5, 4, 0, 51
                    6, 5, 0, 51
                    7, 6, 0, 51
     LINE    35     8, 7, 0, 51
                    9, 8, 0, 51
                    10, 9, 0, 51
                    11, 10, 0, 51
                    12, 11, 0, 51
     LINE    40     13, 12, 0, 51
                    14, 13, 0, 51
                    15, 14, 0, 51
                    16, 15, 0, 51
                    17, 16, 0, 51
     LINE    45     18, 17, 0, 51
                    19, 18, 0, 51
                    20, 19, 0, 51
                    21, 20, 0, 51
                    22, 21, 0, 51
     LINE    50     23, 22, 0, 51
                    24, 23, 0, 51
                    25, 24, 0, 51
                    26, 25, 0, 51
                    27, 26, 0, 51
     LINE    55     28, 27, 0, 51
                    29, 28, 0, 51
                    30, 29, 0, 51
                    31, 30, 0, 51
                    32, 31, 0, 51
     LINE    60     33, 32, 0, 51
                    34, 33, 0, 51
                    35, 34, 0, 51
                    36, 35, 0, 51
                    37, 36, 0, 51
     LINE    65     38, 37, 0, 51
                    39, 38, 0, 51
                    40, 39, 0, 51
                    41, 40, 0, 51
                    42, 41, 0, 51
     LINE    70     43, 42, 0, 51
                    44, 43, 0, 51
                    45, 44, 0, 51
                    46, 45, 0, 51
                    47, 46, 0, 51
     LINE    75     48, 47, 0, 51
                    49, 48, 0, 51
                    50, 49, 0, 51
                    51, 50, 0, 51
                    52, 51, 0, 51
     LINE    80     53, 52, 0, 51
                    54, 53, 0, 51
                    55, 54, 0, 51
                    56, 55, 0, 51
                    57, 56, 0, 51
     LINE    85     58, 57, 0, 51
                    59, 58, 0, 51
                    60, 59, 0, 51
                    61, 60, 0, 51
                    62, 61, 0, 51
     LINE    90     63, 62, 0, 51
                    64, 63, 0, 51
                    65, 64, 0, 51
                    66, 65, 0, 51
                    67, 66, 0, 51
     LINE    95     68, 67, 0, 51
                    69, 68, 0, 51
                    70, 69, 0, 51
                    71, 70, 0, 51
                    72, 71, 0, 51
     LINE   100     73, 72, 0, 51
                    74, 73, 0, 51
                    75, 74, 0, 51
                    76, 75, 0, 51
                    77, 76, 0, 51
     LINE   105     78, 77, 0, 51
                    79, 78, 0, 51
                    80, 79, 0, 51
                    81, 80, 0, 51
                    82, 81, 0, 51
     LINE   110     83, 82, 0, 51
                    84, 83, 0, 51
                    85, 84, 0, 51
                    86, 85, 0, 51
                    87, 86, 0, 51
     LINE   115     88, 87, 0, 51
                    89, 88, 0, 51
                    90, 89, 0, 51
                    91, 90, 0, 51
                    92, 91, 0, 51
     LINE   120     93, 92, 0, 51
                    94, 93, 0, 51
                    95, 94, 0, 51
                    96, 95, 0, 51
                    97, 96, 0, 51
     LINE   125     98, 97, 0, 51
                    99, 98, 0, 51
                    100, 99, 0, 51
                    101, 100, 0, 51
                    102, 101, 0, 51
     LINE   130     103, 102, 0, 51
                    104, 103, 0, 51
                    105, 104, 0, 51
                    106, 105, 0, 51
                    107, 106, 0, 51
     LINE   135     108, 107, 0, 51
                    109, 108, 0, 51
                    110, 109, 0, 51
                    111, 110, 0, 51
                    112, 111, 0, 51
     LINE   140     113, 112, 0, 51
                    114, 113, 0, 51
                    115, 114, 0, 51
                    116, 115, 0, 51
                    117, 116, 0, 51
     LINE   145     118, 117, 0, 51
                    119, 118, 0, 51
                    120, 119, 0, 51
                    121, 120, 0, 51
                    122, 121, 0, 51
     LINE   150     123, 122, 0, 51
                    124, 123, 0, 51
                    125, 124, 0, 51
                    126, 125, 0, 51
                    127, 126, 0, 51
     LINE   155     128, 127, 0, 51
                    129, 128, 0, 51
                    130, 129, 0, 51
                    131, 130, 0, 51
                    132, 131, 0, 51
     LINE   160     133, 132, 0, 51
                    134, 133, 0, 51
                    135, 134, 0, 51
                    136, 135, 0, 51
                    137, 136, 0, 51
     LINE   165     138, 137, 0, 51
                    139, 138, 0, 51
                    140, 139, 0, 51
                    141, 140, 0, 51
                    142, 141, 0, 51
     LINE   170     143, 142, 0, 51
                    144, 143, 0, 51
                    145, 144, 0, 51
                    146, 145, 0, 51
                    147, 146, 0, 51
     LINE   175     148, 147, 0, 51
                    149, 148, 0, 51
                    150, 149, 0, 51
                    151, 150, 0, 51
                    152, 151, 0, 51
     LINE   180     153, 152, 0, 51
                    154, 153, 0, 51
                    155, 154, 0, 51
                    156, 155, 0, 51
                    157, 156, 0, 51
     LINE   185     158, 157, 0, 51
                    159, 158, 0, 51
                    160, 159, 0, 51
                    161, 160, 0, 51
                    162, 161, 0, 51
     LINE   190     163, 162, 0, 51
                    164, 163, 0, 51
                    165, 164, 0, 51
                    166, 165, 0, 51
                    167, 166, 0, 51
     LINE   195     168, 167, 0, 51
                    169, 168, 0, 51
                    170, 169, 0, 51
                    171, 170, 0, 51
                    172, 171, 0, 51
     LINE   200     173, 172, 0, 51
                    174, 173, 0, 51
                    175, 174, 0, 51
                    176, 175, 0, 51
                    177, 176, 0, 51
     LINE   205     178, 177, 0, 51
                    179, 178, 0, 51
                    180, 179, 0, 51
                    181, 180, 0, 51
                    182, 181, 0, 51
     LINE   210     183, 182, 0, 51
                    184, 183, 0, 51
                    185, 184, 0, 51
                    186, 185, 0, 51
                    187, 186, 0, 51
     LINE   215     188, 187, 0, 51
                    189, 188, 0, 51
                    190, 189, 0, 51
                    191, 190, 0, 51
                    192, 191, 0, 51
     LINE   220     193, 192, 0, 51
                    194, 193, 0, 51
                    195, 194, 0, 51
                    196, 195, 0, 51
                    197, 196, 0, 51
     LINE   225     198, 197, 0, 51
                    199, 198, 0, 51
                    200, 199, 0, 51
                    201, 200, 0, 51
                    202, 201, 0, 51
     LINE   230     203, 202, 0, 51
                    204, 203, 0, 51
                    205, 204, 0, 51
                    206, 205, 0, 51
                    207, 206, 0, 51
     LINE   235     208, 207, 0, 51
                    209, 208, 0, 51
                    210, 209, 0, 51
                    211, 210, 0, 51
                    212, 211, 0, 51
     LINE   240     213, 212, 0, 51
                    214, 213, 0, 51
                    215, 214, 0, 51
                    216, 215, 0, 51
                    217, 216, 0, 51
     LINE   245     218, 217, 0, 51
                    219, 218, 0, 51
                    220, 219, 0, 51
                    221, 220, 0, 51
                    222, 221, 0, 51
     LINE   250     223, 222, 0, 51
                    224, 223, 0, 51
                    225, 224, 0, 51
                    226, 225, 0, 51
                    227, 226, 0, 51
     LINE   255     228, 227, 0, 51
                    229, 228, 0, 51
                    230, 229, 0, 51
                    231, 230, 0, 51
                    232, 231, 0, 51
     LINE   260     233, 232, 0, 51
                    234, 233, 0, 51
                    235, 234, 0, 51
                    236, 235, 0, 51
                    237, 236, 0, 51
     LINE   265     238, 237, 0, 51
                    239, 238, 0, 51
                    240, 239, 0, 51
                    241, 240, 0, 51
                    242, 241, 0, 51
     LINE   270     243, 242, 0, 51
                    244, 243, 0, 51
                    245, 244, 0, 51
                    246, 245, 0, 51
                    247, 246, 0, 51
     LINE   275     248, 247, 0, 51
                    249, 248, 0, 51
                    250, 249, 0, 51
                    251, 250, 0, 51
                    252, 251, 0, 51
     LINE   280     253, 252, 0, 51
                    254, 253, 0, 51
                    255, 254, 0, 51
                    256, 255, 0, 51
                    257, 256, 0, 51
     LINE   285     258, 257, 0, 51
                    259, 258, 0, 51
                    260, 259, 0, 51
                    261, 260, 0, 51
                    262, 261, 0, 51
     LINE   290     263, 262, 0, 51
                    264, 263, 0, 51
                    265, 264, 0, 51
                    266, 265, 0, 51
                    267, 266, 0, 51
     LINE   295     268, 267, 0, 51
                    269, 268, 0, 51
                    270, 269, 0, 51
                    271, 270, 0, 51
                    272, 271, 0, 51
     LINE   300     273, 272, 0, 51
                    274, 273, 0, 51
                    275, 274, 0, 51
                    276, 275, 0, 51
                    277, 276, 0, 51
     LINE   305     278, 277, 0, 51
                    279, 278, 0, 51
                    280, 279, 0, 51
                    281, 280, 0, 51
                    282, 281, 0, 51
     LINE   310     283, 282, 0, 51
                    284, 283, 0, 51
                    285, 284, 0, 51
                    286, 285, 0, 51
                    287, 286, 0, 51
     LINE   315     288, 287, 0, 51
                    289, 288, 0, 51
                    290, 289, 0, 51
                    291, 290, 0, 51
                    292, 291, 0, 51
     LINE   320     293, 292, 0, 51
                    294, 293, 0, 51
                    295, 294, 0, 51
                    296, 295, 0, 51
                    297, 296, 0, 51
     LINE   325     298, 297, 0, 51
                    299, 298, 0, 51
                    300, 299, 0, 51
                    301, 300, 0, 51
                    302, 301, 0, 51
     LINE   330     303, 302, 0, 51
                    304, 303, 0, 51
                    305, 304, 0, 51
                    306, 305, 0, 51
                    307, 306, 0, 51
     LINE   335     308, 307, 0, 51
                    309, 308, 0, 51
                    310, 309, 0, 51
                    311, 310, 0, 51
                    312, 311, 0, 51
     LINE   340     313, 312, 0, 51
                    314, 313, 0, 51
                    315, 314, 0, 51
                    316, 315, 0, 51
                    317, 316, 0, 51
     LINE   345     318, 317, 0, 51
                    319, 318, 0, 51
                    320, 319, 0, 51
                    321, 320, 0, 51
                    322, 321, 0, 51
     LINE   350     323, 322, 0, 51
                    324, 323, 0, 51
                    325, 324, 0, 51
                    326, 325, 0, 51
                    327, 326, 0, 51
     LINE   355     328, 327, 0, 51
                    329, 328, 0, 51
                    330, 329, 0, 51
                    331, 330, 0, 51
                    332, 331, 0, 51
     LINE   360     333, 332, 0, 51
                    334, 333, 0, 51
                    335, 334, 0, 51
                    336, 335, 0, 51
                    337, 336, 0, 51
     LINE   365     338, 337, 0, 51
                    339, 338, 0, 51
                    340, 339, 0, 51
                    341, 340, 0, 51
                    342, 341, 0, 51
     LINE   370     343, 342, 0, 51
                    344, 343, 0, 51
                    345, 344, 0, 51
                    346, 345, 0, 51
                    347, 346, 0, 51
     LINE   375     348, 347, 0, 51
                    349, 348, 0, 51
                    350, 349, 0, 51
                    351, 350, 0, 51
                    352, 351, 0, 51
     LINE   380     353, 352, 0, 51
                    354, 353, 0, 51
                    355, 354, 0, 51
                    356, 355, 0, 51
                    357, 356, 0, 51
     LINE   385     358, 357, 0, 51
                    359, 358, 0, 51
                    360, 67, -9.5, 0
                    361, 67, -9.4700000000000006, 1
                    362, 67, -9.4499999999999993, 2
     LINE   390     363, 67, -9.4199999999999999, 3
                    364, 67, -9.3900000000000006, 4
                    365, 67, -9.3599999999999994, 5
                    366, 67, -9.3399999999999999, 6
                    367, 67, -9.3100000000000005, 7
     LINE   395     368, 67, -9.2799999999999994, 8
                    369, 67, -9.2599999999999998, 9
                    370, 67, -9.2300000000000004, 10
                    371, 67, -9.1999999999999993, 11
                    372, 67, -9.1699999999999999, 12
     LINE   400     373, 67, -9.1500000000000004, 13
                    374, 67, -9.1199999999999992, 14
                    375, 67, -9.0899999999999999, 15
                    376, 67, -9.0700000000000003, 16
                    377, 67, -9.0399999999999991, 17
     LINE   405     378, 67, -9.0099999999999998, 18
                    379, 67, -8.9800000000000004, 19
                    380, 67, -8.9600000000000009, 20
                    381, 67, -8.9299999999999997, 21
                    382, 67, -8.9000000000000004, 22
     LINE   410     383, 67, -8.8800000000000008, 23
                    384, 67, -8.8499999999999996, 24
                    385, 67, -8.8200000000000003, 25
                    386, 67, -8.7899999999999991, 26
                    387, 67, -8.7699999999999996, 27
     LINE   415     388, 67, -8.7400000000000002, 28
                    389, 67, -8.7100000000000009, 29
                    390, 67, -8.6899999999999995, 30
                    391, 67, -8.6600000000000001, 31
                    392, 67, -8.6300000000000008, 32
     LINE   420     393, 67, -8.5999999999999996, 33
                    394, 67, -8.5800000000000001, 34
                    395, 67, -8.5500000000000007, 35
                    396, 67, -8.5199999999999996, 36
                    397, 67, -8.5, 37
     LINE   425     398, 67, -8.4700000000000006, 38
                    399, 67, -8.4399999999999995, 39
                    400, 67, -8.4100000000000001, 40
                    401, 67, -8.3900000000000006, 41
                    402, 67, -8.3599999999999994, 42
     LINE   430     403, 67, -8.3300000000000001, 43
                    404, 67, -8.3100000000000005, 44
                    405, 67, -8.2799999999999994, 45
                    406, 67, -8.25, 46
                    407, 67, -8.2200000000000006, 47
     LINE   435     408, 67, -8.1999999999999993, 48
                    409, 67, -8.1699999999999999, 49
                    410, 67, -8.1400000000000006, 50
                    411, 67, -8.1199999999999992, 51
                    412, 67, -8.0899999999999999, 52
     LINE   440     413, 67, -8.0600000000000005, 53
                    414, 67, -8.0299999999999994, 54
                    415, 67, -8.0099999999999998, 55
                    416, 67, -7.9800000000000004, 56
                    417, 67, -7.9500000000000002, 57
     LINE   445     418, 67, -7.9299999999999997, 58
                    419, 67, -7.9000000000000004, 59
                    420, 67, -7.8700000000000001, 60
                    421, 67, -7.8399999999999999, 61
                    422, 67, -7.8200000000000003, 62
     LINE   450     423, 67, -7.79, 63
                    424, 67, -7.7599999999999998, 64
                    425, 67, -7.7400000000000002, 65
                    426, 67, -7.71, 66
                    427, 67, -7.6799999999999997, 67
     LINE   455     428, 67, -7.6600000000000001, 68
                    429, 67, -7.6299999999999999, 69
                    430, 67, -7.5999999999999996, 70
                    431, 67, -7.5700000000000003, 71
                    432, 67, -7.5499999999999998, 72
     LINE   460     433, 67, -7.5199999999999996, 73
                    434, 67, -7.4900000000000002, 74
                    435, 67, -7.4699999999999998, 75
                    436, 67, -7.4400000000000004, 76
                    437, 67, -7.4100000000000001, 77
     LINE   465     438, 67, -7.3799999999999999, 78
                    439, 67, -7.3600000000000003, 79
                    440, 67, -7.3300000000000001, 80
                    441, 67, -7.2999999999999998, 81
                    442, 67, -7.2800000000000002, 82
     LINE   470     443, 67, -7.25, 83
                    444, 67, -7.2199999999999998, 84
                    445, 67, -7.1900000000000004, 85
                    446, 67, -7.1699999999999999, 86
                    447, 67, -7.1399999999999997, 87
     LINE   475     448, 67, -7.1100000000000003, 88
                    449, 67, -7.0899999999999999, 89
                    450, 67, -7.0599999999999996, 90
                    451, 67, -7.0300000000000002, 91
                    452, 67, -7, 92
     LINE   480     453, 67, -6.9800000000000004, 93
                    454, 67, -6.9500000000000002, 94
                    455, 67, -6.9199999999999999, 95
                    456, 67, -6.9000000000000004, 96
                    457, 67, -6.8700000000000001, 97
     LINE   485     458, 67, -6.8399999999999999, 98
                    459, 67, -6.8099999999999996, 99
                    460, 67, -6.79, 100
                    461, 67, -6.7599999999999998, 101
                    462, 67, -6.7300000000000004, 102
     LINE   490     463, 67, -6.71, 103
                    464, 67, -6.6799999999999997, 104
                    465, 67, -6.6500000000000004, 105
                    466, 67, -6.6200000000000001, 106
                    467, 67, -6.5999999999999996, 107
     LINE   495     468, 67, -6.5700000000000003, 108
                    469, 67, -6.54, 109
                    470, 67, -6.5199999999999996, 110
                    471, 67, -6.4900000000000002, 111
                    472, 67, -6.46, 112
     LINE   500     473, 67, -6.4299999999999997, 113
                    474, 67, -6.4100000000000001, 114
                    475, 67, -6.3799999999999999, 115
                    476, 67, -6.3499999999999996, 116
                    477, 67, -6.3300000000000001, 117
     LINE   505     478, 67, -6.2999999999999998, 118
                    479, 67, -6.2699999999999996, 119
                    480, 67, -6.2400000000000002, 120
                    481, 67, -6.2199999999999998, 121
                    482, 67, -6.1900000000000004, 122
     LINE   510     483, 67, -6.1600000000000001, 123
                    484, 67, -6.1399999999999997, 124
                    485, 67, -6.1100000000000003, 125
                    486, 67, -6.0800000000000001, 126
                    487, 67, -6.0499999999999998, 127
     LINE   515     488, 67, -6.0300000000000002, 128
                    489, 67, -6, 129
                    490, 67, -6, 130
                    491, 67, -6, 131
                    492, 67, -6, 132
     LINE   520     493, 67, -6, 133
                    494, 67, -6, 134
                    495, 67, -6, 135
                    496, 67, -6, 136
                    497, 67, -6, 137
     LINE   525     498, 67, -6, 138
                    499, 67, -6, 139
                    500, 67, -6, 140
                    501, 67, -6, 141
                    502, 67, -6, 142
     LINE   530     503, 67, -6, 143
                    504, 67, -6, 144
                    505, 67, -6, 145
                    506, 67, -6, 146
                    507, 67, -6, 147
     LINE   535     508, 67, -6, 148
                    509, 67, -6, 149
                    510, 67, -6, 150
                    511, 67, -6, 151
                    512, 67, -6, 152
     LINE   540     513, 67, -6, 153
                    514, 67, -6, 154
                    515, 67, -6, 155
                    516, 67, -6, 156
                    517, 67, -6, 157
     LINE   545     518, 67, -6, 158
                    519, 67, -6, 159
                    520, 67, -6, 160
                    521, 67, -6, 161
                    522, 67, -6, 162
     LINE   550     523, 67, -6, 163
                    524, 67, -6, 164
                    525, 67, 9.5, 0
                    526, 67, 9.4700000000000006, 1
                    527, 67, 9.4499999999999993, 2
     LINE   555     528, 67, 9.4199999999999999, 3
                    529, 67, 9.3900000000000006, 4
                    530, 67, 9.3599999999999994, 5
                    531, 67, 9.3399999999999999, 6
                    532, 67, 9.3100000000000005, 7
     LINE   560     533, 67, 9.2799999999999994, 8
                    534, 67, 9.2599999999999998, 9
                    535, 67, 9.2300000000000004, 10
                    536, 67, 9.1999999999999993, 11
                    537, 67, 9.1699999999999999, 12
     LINE   565     538, 67, 9.1500000000000004, 13
                    539, 67, 9.1199999999999992, 14
                    540, 67, 9.0899999999999999, 15
                    541, 67, 9.0700000000000003, 16
                    542, 67, 9.0399999999999991, 17
     LINE   570     543, 67, 9.0099999999999998, 18
                    544, 67, 8.9800000000000004, 19
                    545, 67, 8.9600000000000009, 20
                    546, 67, 8.9299999999999997, 21
                    547, 67, 8.9000000000000004, 22
     LINE   575     548, 67, 8.8800000000000008, 23
                    549, 67, 8.8499999999999996, 24
                    550, 67, 8.8200000000000003, 25
                    551, 67, 8.7899999999999991, 26
                    552, 67, 8.7699999999999996, 27
     LINE   580     553, 67, 8.7400000000000002, 28
                    554, 67, 8.7100000000000009, 29
                    555, 67, 8.6899999999999995, 30
                    556, 67, 8.6600000000000001, 31
                    557, 67, 8.6300000000000008, 32
     LINE   585     558, 67, 8.5999999999999996, 33
                    559, 67, 8.5800000000000001, 34
                    560, 67, 8.5500000000000007, 35
                    561, 67, 8.5199999999999996, 36
                    562, 67, 8.5, 37
     LINE   590     563, 67, 8.4700000000000006, 38
                    564, 67, 8.4399999999999995, 39
                    565, 67, 8.4100000000000001, 40
                    566, 67, 8.3900000000000006, 41
                    567, 67, 8.3599999999999994, 42
     LINE   595     568, 67, 8.3300000000000001, 43
                    569, 67, 8.3100000000000005, 44
                    570, 67, 8.2799999999999994, 45
                    571, 67, 8.25, 46
                    572, 67, 8.2200000000000006, 47
     LINE   600     573, 67, 8.1999999999999993, 48
                    574, 67, 8.1699999999999999, 49
                    575, 67, 8.1400000000000006, 50
                    576, 67, 8.1199999999999992, 51
                    577, 67, 8.0899999999999999, 52
     LINE   605     578, 67, 8.0600000000000005, 53
                    579, 67, 8.0299999999999994, 54
                    580, 67, 8.0099999999999998, 55
                    581, 67, 7.9800000000000004, 56
                    582, 67, 7.9500000000000002, 57
     LINE   610     583, 67, 7.9299999999999997, 58
                    584, 67, 7.9000000000000004, 59
                    585, 67, 7.8700000000000001, 60
                    586, 67, 7.8399999999999999, 61
                    587, 67, 7.8200000000000003, 62
     LINE   615     588, 67, 7.79, 63
                    589, 67, 7.7599999999999998, 64
                    590, 67, 7.7400000000000002, 65
                    591, 67, 7.71, 66
                    592, 67, 7.6799999999999997, 67
     LINE   620     593, 67, 7.6600000000000001, 68
                    594, 67, 7.6299999999999999, 69
                    595, 67, 7.5999999999999996, 70
                    596, 67, 7.5700000000000003, 71
                    597, 67, 7.5499999999999998, 72
     LINE   625     598, 67, 7.5199999999999996, 73
                    599, 67, 7.4900000000000002, 74
                    600, 67, 7.4699999999999998, 75
                    601, 67, 7.4400000000000004, 76
                    602, 67, 7.4100000000000001, 77
     LINE   630     603, 67, 7.3799999999999999, 78
                    604, 67, 7.3600000000000003, 79
                    605, 67, 7.3300000000000001, 80
                    606, 67, 7.2999999999999998, 81
                    607, 67, 7.2800000000000002, 82
     LINE   635     608, 67, 7.25, 83
                    609, 67, 7.2199999999999998, 84
                    610, 67, 7.1900000000000004, 85
                    611, 67, 7.1699999999999999, 86
                    612, 67, 7.1399999999999997, 87
     LINE   640     613, 67, 7.1100000000000003, 88
                    614, 67, 7.0899999999999999, 89
                    615, 67, 7.0599999999999996, 90
                    616, 67, 7.0300000000000002, 91
                    617, 67, 7, 92
     LINE   645     618, 67, 6.9800000000000004, 93
                    619, 67, 6.9500000000000002, 94
                    620, 67, 6.9199999999999999, 95
                    621, 67, 6.9000000000000004, 96
                    622, 67, 6.8700000000000001, 97
     LINE   650     623, 67, 6.8399999999999999, 98
                    624, 67, 6.8099999999999996, 99
                    625, 67, 6.79, 100
                    626, 67, 6.7599999999999998, 101
                    627, 67, 6.7300000000000004, 102
     LINE   655     628, 67, 6.71, 103
                    629, 67, 6.6799999999999997, 104
                    630, 67, 6.6500000000000004, 105
                    631, 67, 6.6200000000000001, 106
                    632, 67, 6.5999999999999996, 107
     LINE   660     633, 67, 6.5700000000000003, 108
                    634, 67, 6.54, 109
                    635, 67, 6.5199999999999996, 110
                    636, 67, 6.4900000000000002, 111
                    637, 67, 6.46, 112
     LINE   665     638, 67, 6.4299999999999997, 113
                    639, 67, 6.4100000000000001, 114
                    640, 67, 6.3799999999999999, 115
                    641, 67, 6.3499999999999996, 116
                    642, 67, 6.3300000000000001, 117
     LINE   670     643, 67, 6.2999999999999998, 118
                    644, 67, 6.2699999999999996, 119
                    645, 67, 6.2400000000000002, 120
                    646, 67, 6.2199999999999998, 121
                    647, 67, 6.1900000000000004, 122
     LINE   675     648, 67, 6.1600000000000001, 123
                    649, 67, 6.1399999999999997, 124
                    650, 67, 6.1100000000000003, 125
                    651, 67, 6.0800000000000001, 126
                    652, 67, 6.0499999999999998, 127
     LINE   680     653, 67, 6.0300000000000002, 128
                    654, 67, 6, 129
                    655, 67, 6, 130
                    656, 67, 6, 131
                    657, 67, 6, 132
     LINE   685     658, 67, 6, 133
                    659, 67, 6, 134
                    660, 67, 6, 135
                    661, 67, 6, 136
                    662, 67, 6, 137
     LINE   690     663, 67, 6, 138
                    664, 67, 6, 139
                    665, 67, 6, 140
                    666, 67, 6, 141
                    667, 67, 6, 142
     LINE   695     668, 67, 6, 143
                    669, 67, 6, 144
                    670, 67, 6, 145
                    671, 67, 6, 146
                    672, 67, 6, 147
     LINE   700     673, 67, 6, 148
                    674, 67, 6, 149
                    675, 67, 6, 150
                    676, 67, 6, 151
                    677, 67, 6, 152
     LINE   705     678, 67, 6, 153
                    679, 67, 6, 154
                    680, 67, 6, 155
                    681, 67, 6, 156
                    682, 67, 6, 157
     LINE   710     683, 67, 6, 158
                    684, 67, 6, 159
                    685, 67, 6, 160
                    686, 67, 6, 161
                    687, 67, 6, 162
     LINE   715     688, 67, 6, 163
                    689, 67, 6, 164
                    690, 67, -7, 51
                    691, 67, -6, 51
                    692, 67, -5, 51
     LINE   720     693, 67, -4, 51
                    694, 67, -3, 51
                    695, 67, -2, 51
                    696, 67, -1, 51
                    697, 67, 1, 51
     LINE   725     698, 67, 2, 51
                    699, 67, 3, 51
                    700, 67, 4, 51
                    701, 67, 5, 51
                    702, 67, 6, 51
     LINE   730     703, 67, 7, 51
                    704, 67, -6, 93
                    705, 67, -5, 93
                    706, 67, -4, 93
                    707, 67, -3, 93
     LINE   735     708, 67, -2, 93
                    709, 67, -1, 93
                    710, 67, 0, 93
                    711, 67, 1, 93
                    712, 67, 2, 93
     LINE   740     713, 67, 3, 93
                    714, 67, 4, 93
                    715, 67, 5, 93
                    716, 67, 6, 93
                    717, 67, -5, 130
     LINE   745     718, 67, -4, 130
                    719, 67, -3, 130
                    720, 67, -2, 130
                    721, 67, -1, 130
                    722, 67, 0, 130
     LINE   750     723, 67, 1, 130
                    724, 67, 2, 130
                    725, 67, 3, 130
                    726, 67, 4, 130
                    727, 67, 5, 130
     LINE   755     728, 0, -6, 51
                    729, -5, -6, 58
                    730, -10, -6, 65
                    731, -15, -6, 72
                    732, -20, -6, 79
     LINE   760     733, -25, -6, 86
                    734, 0, 6, 51
                    735, -5, 6, 58
                    736, -10, 6, 65
                    737, -15, 6, 72
     LINE   765     738, -20, 6, 79
                    739, -25, 6, 86
                    740, 16, -5.7999999999999998, 51
                    741, 40, -5.7999999999999998, 51
                    742, 94, -5.7999999999999998, 51
     LINE   770     743, 114, -5.7999999999999998, 51
                    744, 134, -5.7999999999999998, 51
                    745, 154, -5.7999999999999998, 51
                    746, 174, -5.7999999999999998, 51
                    747, 194, -5.7999999999999998, 51
     LINE   775     748, 214, -5.7999999999999998, 51
                    749, 234, -5.7999999999999998, 51
                    750, 254, -5.7999999999999998, 51
                    751, 274, -5.7999999999999998, 51
                    752, 294, -5.7999999999999998, 51
     LINE   780     753, 314, -5.7999999999999998, 51
                    754, 334, -5.7999999999999998, 51
                    755, 16, 5.7999999999999998, 51
                    756, 40, 5.7999999999999998, 51
                    757, 94, 5.7999999999999998, 51
     LINE   785     758, 114, 5.7999999999999998, 51
                    759, 134, 5.7999999999999998, 51
                    760, 154, 5.7999999999999998, 51
                    761, 174, 5.7999999999999998, 51
                    762, 194, 5.7999999999999998, 51
     LINE   790     763, 214, 5.7999999999999998, 51
                    764, 234, 5.7999999999999998, 51
                    765, 254, 5.7999999999999998, 51
                    766, 274, 5.7999999999999998, 51
                    767, 294, 5.7999999999999998, 51
     LINE   795     768, 314, 5.7999999999999998, 51
                    769, 334, 5.7999999999999998, 51
                    770, 29, -5.7999999999999998, 51
                    771, 29, 5.7999999999999998, 51
                    *Element, type=B31
     LINE   800     2, 1, 2
                    3, 2, 3
                    4, 3, 4
                    5, 4, 5
                    6, 5, 6
     LINE   805     7, 6, 7
                    8, 7, 8
                    9, 8, 9
                    10, 9, 10
                    11, 10, 11
     LINE   810     12, 11, 12
                    13, 12, 13
                    14, 13, 14
                    15, 14, 15
                    16, 15, 16
     LINE   815     17, 16, 17
                    18, 17, 18
                    19, 18, 19
                    20, 19, 20
                    21, 20, 21
     LINE   820     22, 21, 22
                    23, 22, 23
                    24, 23, 24
                    25, 24, 25
                    26, 25, 26
     LINE   825     27, 26, 27
                    28, 27, 28
                    29, 28, 29
                    30, 29, 30
                    31, 30, 31
     LINE   830     32, 31, 32
                    33, 32, 33
                    34, 33, 34
                    35, 34, 35
                    36, 35, 36
     LINE   835     37, 36, 37
                    38, 37, 38
                    39, 38, 39
                    40, 39, 40
                    41, 40, 41
     LINE   840     42, 41, 42
                    43, 42, 43
                    44, 43, 44
                    45, 44, 45
                    46, 45, 46
     LINE   845     47, 46, 47
                    48, 47, 48
                    49, 48, 49
                    50, 49, 50
                    51, 50, 51
     LINE   850     52, 51, 52
                    53, 52, 53
                    54, 53, 54
                    55, 54, 55
                    56, 55, 56
     LINE   855     57, 56, 57
                    58, 57, 58
                    59, 58, 59
                    60, 59, 60
                    61, 60, 61
     LINE   860     62, 61, 62
                    63, 62, 63
                    64, 63, 64
                    65, 64, 65
                    66, 65, 66
     LINE   865     67, 66, 67
                    68, 67, 68
                    69, 68, 69
                    70, 69, 70
                    71, 70, 71
     LINE   870     72, 71, 72
                    73, 72, 73
                    74, 73, 74
                    75, 74, 75
                    76, 75, 76
     LINE   875     77, 76, 77
                    78, 77, 78
                    79, 78, 79
                    80, 79, 80
                    81, 80, 81
     LINE   880     82, 81, 82
                    83, 82, 83
                    84, 83, 84
                    85, 84, 85
                    86, 85, 86
     LINE   885     87, 86, 87
                    88, 87, 88
                    89, 88, 89
                    90, 89, 90
                    91, 90, 91
     LINE   890     92, 91, 92
                    93, 92, 93
                    94, 93, 94
                    95, 94, 95
                    96, 95, 96
     LINE   895     97, 96, 97
                    98, 97, 98
                    99, 98, 99
                    100, 99, 100
                    101, 100, 101
     LINE   900     102, 101, 102
                    103, 102, 103
                    104, 103, 104
                    105, 104, 105
                    106, 105, 106
     LINE   905     107, 106, 107
                    108, 107, 108
                    109, 108, 109
                    110, 109, 110
                    111, 110, 111
     LINE   910     112, 111, 112
                    113, 112, 113
                    114, 113, 114
                    115, 114, 115
                    116, 115, 116
     LINE   915     117, 116, 117
                    118, 117, 118
                    119, 118, 119
                    120, 119, 120
                    121, 120, 121
     LINE   920     122, 121, 122
                    123, 122, 123
                    124, 123, 124
                    125, 124, 125
                    126, 125, 126
     LINE   925     127, 126, 127
                    128, 127, 128
                    129, 128, 129
                    130, 129, 130
                    131, 130, 131
     LINE   930     132, 131, 132
                    133, 132, 133
                    134, 133, 134
                    135, 134, 135
                    136, 135, 136
     LINE   935     137, 136, 137
                    138, 137, 138
                    139, 138, 139
                    140, 139, 140
                    141, 140, 141
     LINE   940     142, 141, 142
                    143, 142, 143
                    144, 143, 144
                    145, 144, 145
                    146, 145, 146
     LINE   945     147, 146, 147
                    148, 147, 148
                    149, 148, 149
                    150, 149, 150
                    151, 150, 151
     LINE   950     152, 151, 152
                    153, 152, 153
                    154, 153, 154
                    155, 154, 155
                    156, 155, 156
     LINE   955     157, 156, 157
                    158, 157, 158
                    159, 158, 159
                    160, 159, 160
                    161, 160, 161
     LINE   960     162, 161, 162
                    163, 162, 163
                    164, 163, 164
                    165, 164, 165
                    166, 165, 166
     LINE   965     167, 166, 167
                    168, 167, 168
                    169, 168, 169
                    170, 169, 170
                    171, 170, 171
     LINE   970     172, 171, 172
                    173, 172, 173
                    174, 173, 174
                    175, 174, 175
                    176, 175, 176
     LINE   975     177, 176, 177
                    178, 177, 178
                    179, 178, 179
                    180, 179, 180
                    181, 180, 181
     LINE   980     182, 181, 182
                    183, 182, 183
                    184, 183, 184
                    185, 184, 185
                    186, 185, 186
     LINE   985     187, 186, 187
                    188, 187, 188
                    189, 188, 189
                    190, 189, 190
                    191, 190, 191
     LINE   990     192, 191, 192
                    193, 192, 193
                    194, 193, 194
                    195, 194, 195
                    196, 195, 196
     LINE   995     197, 196, 197
                    198, 197, 198
                    199, 198, 199
                    200, 199, 200
                    201, 200, 201
     LINE  1000     202, 201, 202
                    203, 202, 203
                    204, 203, 204
                    205, 204, 205
                    206, 205, 206
     LINE  1005     207, 206, 207
                    208, 207, 208
                    209, 208, 209
                    210, 209, 210
                    211, 210, 211
     LINE  1010     212, 211, 212
                    213, 212, 213
                    214, 213, 214
                    215, 214, 215
                    216, 215, 216
     LINE  1015     217, 216, 217
                    218, 217, 218
                    219, 218, 219
                    220, 219, 220
                    221, 220, 221
     LINE  1020     222, 221, 222
                    223, 222, 223
                    224, 223, 224
                    225, 224, 225
                    226, 225, 226
     LINE  1025     227, 226, 227
                    228, 227, 228
                    229, 228, 229
                    230, 229, 230
                    231, 230, 231
     LINE  1030     232, 231, 232
                    233, 232, 233
                    234, 233, 234
                    235, 234, 235
                    236, 235, 236
     LINE  1035     237, 236, 237
                    238, 237, 238
                    239, 238, 239
                    240, 239, 240
                    241, 240, 241
     LINE  1040     242, 241, 242
                    243, 242, 243
                    244, 243, 244
                    245, 244, 245
                    246, 245, 246
     LINE  1045     247, 246, 247
                    248, 247, 248
                    249, 248, 249
                    250, 249, 250
                    251, 250, 251
     LINE  1050     252, 251, 252
                    253, 252, 253
                    254, 253, 254
                    255, 254, 255
                    256, 255, 256
     LINE  1055     257, 256, 257
                    258, 257, 258
                    259, 258, 259
                    260, 259, 260
                    261, 260, 261
     LINE  1060     262, 261, 262
                    263, 262, 263
                    264, 263, 264
                    265, 264, 265
                    266, 265, 266
     LINE  1065     267, 266, 267
                    268, 267, 268
                    269, 268, 269
                    270, 269, 270
                    271, 270, 271
     LINE  1070     272, 271, 272
                    273, 272, 273
                    274, 273, 274
                    275, 274, 275
                    276, 275, 276
     LINE  1075     277, 276, 277
                    278, 277, 278
                    279, 278, 279
                    280, 279, 280
                    281, 280, 281
     LINE  1080     282, 281, 282
                    283, 282, 283
                    284, 283, 284
                    285, 284, 285
                    286, 285, 286
     LINE  1085     287, 286, 287
                    288, 287, 288
                    289, 288, 289
                    290, 289, 290
                    291, 290, 291
     LINE  1090     292, 291, 292
                    293, 292, 293
                    294, 293, 294
                    295, 294, 295
                    296, 295, 296
     LINE  1095     297, 296, 297
                    298, 297, 298
                    299, 298, 299
                    300, 299, 300
                    301, 300, 301
     LINE  1100     302, 301, 302
                    303, 302, 303
                    304, 303, 304
                    305, 304, 305
                    306, 305, 306
     LINE  1105     307, 306, 307
                    308, 307, 308
                    309, 308, 309
                    310, 309, 310
                    311, 310, 311
     LINE  1110     312, 311, 312
                    313, 312, 313
                    314, 313, 314
                    315, 314, 315
                    316, 315, 316
     LINE  1115     317, 316, 317
                    318, 317, 318
                    319, 318, 319
                    320, 319, 320
                    321, 320, 321
     LINE  1120     322, 321, 322
                    323, 322, 323
                    324, 323, 324
                    325, 324, 325
                    326, 325, 326
     LINE  1125     327, 326, 327
                    328, 327, 328
                    329, 328, 329
                    330, 329, 330
                    331, 330, 331
     LINE  1130     332, 331, 332
                    333, 332, 333
                    334, 333, 334
                    335, 334, 335
                    336, 335, 336
     LINE  1135     337, 336, 337
                    338, 337, 338
                    339, 338, 339
                    340, 339, 340
                    341, 340, 341
     LINE  1140     342, 341, 342
                    343, 342, 343
                    344, 343, 344
                    345, 344, 345
                    346, 345, 346
     LINE  1145     347, 346, 347
                    348, 347, 348
                    349, 348, 349
                    350, 349, 350
                    351, 350, 351
     LINE  1150     352, 351, 352
                    353, 352, 353
                    354, 353, 354
                    355, 354, 355
                    356, 355, 356
     LINE  1155     357, 356, 357
                    358, 357, 358
                    359, 358, 359
                    360, 360, 361
                    361, 361, 362
     LINE  1160     362, 362, 363
                    363, 363, 364
                    364, 364, 365
                    365, 365, 366
                    366, 366, 367
     LINE  1165     367, 367, 368
                    368, 368, 369
                    369, 369, 370
                    370, 370, 371
                    371, 371, 372
     LINE  1170     372, 372, 373
                    373, 373, 374
                    374, 374, 375
                    375, 375, 376
                    376, 376, 377
     LINE  1175     377, 377, 378
                    378, 378, 379
                    379, 379, 380
                    380, 380, 381
                    381, 381, 382
     LINE  1180     382, 382, 383
                    383, 383, 384
                    384, 384, 385
                    385, 385, 386
                    386, 386, 387
     LINE  1185     387, 387, 388
                    388, 388, 389
                    389, 389, 390
                    390, 390, 391
                    391, 391, 392
     LINE  1190     392, 392, 393
                    393, 393, 394
                    394, 394, 395
                    395, 395, 396
                    396, 396, 397
     LINE  1195     397, 397, 398
                    398, 398, 399
                    399, 399, 400
                    400, 400, 401
                    401, 401, 402
     LINE  1200     402, 402, 403
                    403, 403, 404
                    404, 404, 405
                    405, 405, 406
                    406, 406, 407
     LINE  1205     407, 407, 408
                    408, 408, 409
                    409, 409, 410
                    410, 410, 411
                    411, 411, 412
     LINE  1210     412, 412, 413
                    413, 413, 414
                    414, 414, 415
                    415, 415, 416
                    416, 416, 417
     LINE  1215     417, 417, 418
                    418, 418, 419
                    419, 419, 420
                    420, 420, 421
                    421, 421, 422
     LINE  1220     422, 422, 423
                    423, 423, 424
                    424, 424, 425
                    425, 425, 426
                    426, 426, 427
     LINE  1225     427, 427, 428
                    428, 428, 429
                    429, 429, 430
                    430, 430, 431
                    431, 431, 432
     LINE  1230     432, 432, 433
                    433, 433, 434
                    434, 434, 435
                    435, 435, 436
                    436, 436, 437
     LINE  1235     437, 437, 438
                    438, 438, 439
                    439, 439, 440
                    440, 440, 441
                    441, 441, 442
     LINE  1240     442, 442, 443
                    443, 443, 444
                    444, 444, 445
                    445, 445, 446
                    446, 446, 447
     LINE  1245     447, 447, 448
                    448, 448, 449
                    449, 449, 450
                    450, 450, 451
                    451, 451, 452
     LINE  1250     452, 452, 453
                    453, 453, 454
                    454, 454, 455
                    455, 455, 456
                    456, 456, 457
     LINE  1255     457, 457, 458
                    458, 458, 459
                    459, 459, 460
                    460, 460, 461
                    461, 461, 462
     LINE  1260     462, 462, 463
                    463, 463, 464
                    464, 464, 465
                    465, 465, 466
                    466, 466, 467
     LINE  1265     467, 467, 468
                    468, 468, 469
                    469, 469, 470
                    470, 470, 471
                    471, 471, 472
     LINE  1270     472, 472, 473
                    473, 473, 474
                    474, 474, 475
                    475, 475, 476
                    476, 476, 477
     LINE  1275     477, 477, 478
                    478, 478, 479
                    479, 479, 480
                    480, 480, 481
                    481, 481, 482
     LINE  1280     482, 482, 483
                    483, 483, 484
                    484, 484, 485
                    485, 485, 486
                    486, 486, 487
     LINE  1285     487, 487, 488
                    488, 488, 489
                    489, 489, 490
                    490, 490, 491
                    491, 491, 492
     LINE  1290     492, 492, 493
                    493, 493, 494
                    494, 494, 495
                    495, 495, 496
                    496, 496, 497
     LINE  1295     497, 497, 498
                    498, 498, 499
                    499, 499, 500
                    500, 500, 501
                    501, 501, 502
     LINE  1300     502, 502, 503
                    503, 503, 504
                    504, 504, 505
                    505, 505, 506
                    506, 506, 507
     LINE  1305     507, 507, 508
                    508, 508, 509
                    509, 509, 510
                    510, 510, 511
                    511, 511, 512
     LINE  1310     512, 512, 513
                    513, 513, 514
                    514, 514, 515
                    515, 515, 516
                    516, 516, 517
     LINE  1315     517, 517, 518
                    518, 518, 519
                    519, 519, 520
                    520, 520, 521
                    521, 521, 522
     LINE  1320     522, 522, 523
                    523, 523, 524
                    524, 525, 526
                    525, 526, 527
                    526, 527, 528
     LINE  1325     527, 528, 529
                    528, 529, 530
                    529, 530, 531
                    530, 531, 532
                    531, 532, 533
     LINE  1330     532, 533, 534
                    533, 534, 535
                    534, 535, 536
                    535, 536, 537
                    536, 537, 538
     LINE  1335     537, 538, 539
                    538, 539, 540
                    539, 540, 541
                    540, 541, 542
                    541, 542, 543
     LINE  1340     542, 543, 544
                    543, 544, 545
                    544, 545, 546
                    545, 546, 547
                    546, 547, 548
     LINE  1345     547, 548, 549
                    548, 549, 550
                    549, 550, 551
                    550, 551, 552
                    551, 552, 553
     LINE  1350     552, 553, 554
                    553, 554, 555
                    554, 555, 556
                    555, 556, 557
                    556, 557, 558
     LINE  1355     557, 558, 559
                    558, 559, 560
                    559, 560, 561
                    560, 561, 562
                    561, 562, 563
     LINE  1360     562, 563, 564
                    563, 564, 565
                    564, 565, 566
                    565, 566, 567
                    566, 567, 568
     LINE  1365     567, 568, 569
                    568, 569, 570
                    569, 570, 571
                    570, 571, 572
                    571, 572, 573
     LINE  1370     572, 573, 574
                    573, 574, 575
                    574, 575, 576
                    575, 576, 577
                    576, 577, 578
     LINE  1375     577, 578, 579
                    578, 579, 580
                    579, 580, 581
                    580, 581, 582
                    581, 582, 583
     LINE  1380     582, 583, 584
                    583, 584, 585
                    584, 585, 586
                    585, 586, 587
                    586, 587, 588
     LINE  1385     587, 588, 589
                    588, 589, 590
                    589, 590, 591
                    590, 591, 592
                    591, 592, 593
     LINE  1390     592, 593, 594
                    593, 594, 595
                    594, 595, 596
                    595, 596, 597
                    596, 597, 598
     LINE  1395     597, 598, 599
                    598, 599, 600
                    599, 600, 601
                    600, 601, 602
                    601, 602, 603
     LINE  1400     602, 603, 604
                    603, 604, 605
                    604, 605, 606
                    605, 606, 607
                    606, 607, 608
     LINE  1405     607, 608, 609
                    608, 609, 610
                    609, 610, 611
                    610, 611, 612
                    611, 612, 613
     LINE  1410     612, 613, 614
                    613, 614, 615
                    614, 615, 616
                    615, 616, 617
                    616, 617, 618
     LINE  1415     617, 618, 619
                    618, 619, 620
                    619, 620, 621
                    620, 621, 622
                    621, 622, 623
     LINE  1420     622, 623, 624
                    623, 624, 625
                    624, 625, 626
                    625, 626, 627
                    626, 627, 628
     LINE  1425     627, 628, 629
                    628, 629, 630
                    629, 630, 631
                    630, 631, 632
                    631, 632, 633
     LINE  1430     632, 633, 634
                    633, 634, 635
                    634, 635, 636
                    635, 636, 637
                    636, 637, 638
     LINE  1435     637, 638, 639
                    638, 639, 640
                    639, 640, 641
                    640, 641, 642
                    641, 642, 643
     LINE  1440     642, 643, 644
                    643, 644, 645
                    644, 645, 646
                    645, 646, 647
                    646, 647, 648
     LINE  1445     647, 648, 649
                    648, 649, 650
                    649, 650, 651
                    650, 651, 652
                    651, 652, 653
     LINE  1450     652, 653, 654
                    653, 654, 655
                    654, 655, 656
                    655, 656, 657
                    656, 657, 658
     LINE  1455     657, 658, 659
                    658, 659, 660
                    659, 660, 661
                    660, 661, 662
                    661, 662, 663
     LINE  1460     662, 663, 664
                    663, 664, 665
                    664, 665, 666
                    665, 666, 667
                    666, 667, 668
     LINE  1465     667, 668, 669
                    668, 669, 670
                    669, 670, 671
                    670, 671, 672
                    671, 672, 673
     LINE  1470     672, 673, 674
                    673, 674, 675
                    674, 675, 676
                    675, 676, 677
                    676, 677, 678
     LINE  1475     677, 678, 679
                    678, 679, 680
                    679, 680, 681
                    680, 681, 682
                    681, 682, 683
     LINE  1480     682, 683, 684
                    683, 684, 685
                    684, 685, 686
                    685, 686, 687
                    686, 687, 688
     LINE  1485     687, 688, 689
                    688, 411, 690
                    689, 690, 691
                    690, 691, 692
                    691, 692, 693
     LINE  1490     692, 693, 694
                    693, 694, 695
                    694, 695, 696
                    695, 696, 68
                    696, 68, 697
     LINE  1495     697, 697, 698
                    698, 698, 699
                    699, 699, 700
                    700, 700, 701
                    701, 701, 702
     LINE  1500     702, 702, 703
                    703, 703, 576
                    704, 453, 704
                    705, 704, 705
                    706, 705, 706
     LINE  1505     707, 706, 707
                    708, 707, 708
                    709, 708, 709
                    710, 709, 710
                    711, 710, 711
     LINE  1510     712, 711, 712
                    713, 712, 713
                    714, 713, 714
                    715, 714, 715
                    716, 715, 716
     LINE  1515     717, 716, 618
                    718, 490, 717
                    719, 717, 718
                    720, 718, 719
                    721, 719, 720
     LINE  1520     722, 720, 721
                    723, 721, 722
                    724, 722, 723
                    725, 723, 724
                    726, 724, 725
     LINE  1525     727, 725, 726
                    728, 726, 727
                    729, 727, 655
                    730, 733, 521
                    731, 732, 517
     LINE  1530     732, 731, 513
                    733, 730, 509
                    734, 729, 505
                    735, 728, 501
                    736, 740, 497
     LINE  1535     737, 741, 493
                    738, 521, 754
                    739, 519, 753
                    740, 517, 752
                    741, 515, 751
     LINE  1540     742, 513, 750
                    743, 511, 749
                    744, 509, 748
                    745, 507, 747
                    746, 505, 746
     LINE  1545     747, 503, 745
                    748, 501, 744
                    749, 499, 743
                    750, 497, 742
                    751, 739, 686
     LINE  1550     752, 738, 682
                    753, 737, 678
                    754, 736, 674
                    755, 735, 670
                    756, 734, 666
     LINE  1555     757, 755, 662
                    758, 756, 658
                    759, 686, 769
                    760, 684, 768
                    761, 682, 767
     LINE  1560     762, 680, 766
                    763, 678, 765
                    764, 676, 764
                    765, 674, 763
                    766, 672, 762
     LINE  1565     767, 670, 761
                    768, 668, 760
                    769, 666, 759
                    770, 664, 758
                    771, 662, 757
     LINE  1570     *Nset, nset=BRIDGE_ASSEMBLY_BRIDGE_1_ACC_METER_NODES
                    770, 771
                    *Nset, nset=BRIDGE_ASSEMBLY_BRIDGE_1_BRIDGE_DECK_NODES
                    1, 2, 3, 4, 5, 6, 7, 8, 9, 10, 11, 12, 13, 14, 15, 16
                    17, 18, 19, 20, 21, 22, 23, 24, 25, 26, 27, 28, 29, 30, 31, 32
     LINE  1575     33, 34, 35, 36, 37, 38, 39, 40, 41, 42, 43, 44, 45, 46, 47, 48
                    49, 50, 51, 52, 53, 54, 55, 56, 57, 58, 59, 60, 61, 62, 63, 64
                    65, 66, 67, 68, 69, 70, 71, 72, 73, 74, 75, 76, 77, 78, 79, 80
                    81, 82, 83, 84, 85, 86, 87, 88, 89, 90, 91, 92, 93, 94, 95, 96
                    97, 98, 99, 100, 101, 102, 103, 104, 105, 106, 107, 108, 109, 110, 111, 112
     LINE  1580     113, 114, 115, 116, 117, 118, 119, 120, 121, 122, 123, 124, 125, 126, 127, 128
                    129, 130, 131, 132, 133, 134, 135, 136, 137, 138, 139, 140, 141, 142, 143, 144
                    145, 146, 147, 148, 149, 150, 151, 152, 153, 154, 155, 156, 157, 158, 159, 160
                    161, 162, 163, 164, 165, 166, 167, 168, 169, 170, 171, 172, 173, 174, 175, 176
                    177, 178, 179, 180, 181, 182, 183, 184, 185, 186, 187, 188, 189, 190, 191, 192
     LINE  1585     193, 194, 195, 196, 197, 198, 199, 200, 201, 202, 203, 204, 205, 206, 207, 208
                    209, 210, 211, 212, 213, 214, 215, 216, 217, 218, 219, 220, 221, 222, 223, 224
                    225, 226, 227, 228, 229, 230, 231, 232, 233, 234, 235, 236, 237, 238, 239, 240
                    241, 242, 243, 244, 245, 246, 247, 248, 249, 250, 251, 252, 253, 254, 255, 256
                    257, 258, 259, 260, 261, 262, 263, 264, 265, 266, 267, 268, 269, 270, 271, 272
     LINE  1590     273, 274, 275, 276, 277, 278, 279, 280, 281, 282, 283, 284, 285, 286, 287, 288
                    289, 290, 291, 292, 293, 294, 295, 296, 297, 298, 299, 300, 301, 302, 303, 304
                    305, 306, 307, 308, 309, 310, 311, 312, 313, 314, 315, 316, 317, 318, 319, 320
                    321, 322, 323, 324, 325, 326, 327, 328, 329, 330, 331, 332, 333, 334, 335, 336
                    337, 338, 339, 340, 341, 342, 343, 344, 345, 346, 347, 348, 349, 350, 351, 352
     LINE  1595     353, 354, 355, 356, 357, 358, 359
                    *Nset, nset=BRIDGE_ASSEMBLY_BRIDGE_1_CABLE_ANCHOR_BRIDGE
                    17, 30, 41, 95, 115, 135, 155, 175, 195, 215, 235, 255, 275, 295, 315, 335
                    *Nset, nset=BRIDGE_ASSEMBLY_BRIDGE_1_CABLE_ANCHOR_EAST
                    734, 735, 736, 737, 738, 739, 755, 756, 757, 758, 759, 760, 761, 762, 763, 764
     LINE  1600     765, 766, 767, 768, 769, 771
                    *Nset, nset=BRIDGE_ASSEMBLY_BRIDGE_1_CABLE_ANCHOR_EAST_BRIDGE
                    755, 756, 757, 758, 759, 760, 761, 762, 763, 764, 765, 766, 767, 768, 769
                    *Nset, nset=BRIDGE_ASSEMBLY_BRIDGE_1_CABLE_ANCHOR_WEST
                    728, 729, 730, 731, 732, 733, 740, 741, 742, 743, 744, 745, 746, 747, 748, 749
     LINE  1605     750, 751, 752, 753, 754, 770
                    *Nset, nset=BRIDGE_ASSEMBLY_BRIDGE_1_CABLE_ANCHOR_WEST_BRIDGE
                    740, 741, 742, 743, 744, 745, 746, 747, 748, 749, 750, 751, 752, 753, 754
                    *Nset, nset=BRIDGE_ASSEMBLY_BRIDGE_1_MAIN_TOWER_EAST
                    525, 526, 527, 528, 529, 530, 531, 532, 533, 534, 535, 536, 537, 538, 539, 540
     LINE  1610     541, 542, 543, 544, 545, 546, 547, 548, 549, 550, 551, 552, 553, 554, 555, 556
                    557, 558, 559, 560, 561, 562, 563, 564, 565, 566, 567, 568, 569, 570, 571, 572
                    573, 574, 575, 576, 577, 578, 579, 580, 581, 582, 583, 584, 585, 586, 587, 588
                    589, 590, 591, 592, 593, 594, 595, 596, 597, 598, 599, 600, 601, 602, 603, 604
                    605, 606, 607, 608, 609, 610, 611, 612, 613, 614, 615, 616, 617, 618, 619, 620
     LINE  1615     621, 622, 623, 624, 625, 626, 627, 628, 629, 630, 631, 632, 633, 634, 635, 636
                    637, 638, 639, 640, 641, 642, 643, 644, 645, 646, 647, 648, 649, 650, 651, 652
                    653, 654, 655, 656, 657, 658, 659, 660, 661, 662, 663, 664, 665, 666, 667, 668
                    669, 670, 671, 672, 673, 674, 675, 676, 677, 678, 679, 680, 681, 682, 683, 684
                    685, 686, 687, 688, 689
     LINE  1620     *Nset, nset=BRIDGE_ASSEMBLY_BRIDGE_1_MAIN_TOWER_LOWER_COUPLING
                    690, 691, 692, 693, 694, 695, 696, 697, 698, 699, 700, 701, 702, 703
                    *Nset, nset=BRIDGE_ASSEMBLY_BRIDGE_1_MAIN_TOWER_MID_COUPLING
                    704, 705, 706, 707, 708, 709, 710, 711, 712, 713, 714, 715, 716
                    *Nset, nset=BRIDGE_ASSEMBLY_BRIDGE_1_MAIN_TOWER_UPPER_COUPLING
     LINE  1625     717, 718, 719, 720, 721, 722, 723, 724, 725, 726, 727
                    *Nset, nset=BRIDGE_ASSEMBLY_BRIDGE_1_MAIN_TOWER_WEST
                    360, 361, 362, 363, 364, 365, 366, 367, 368, 369, 370, 371, 372, 373, 374, 375
                    376, 377, 378, 379, 380, 381, 382, 383, 384, 385, 386, 387, 388, 389, 390, 391
                    392, 393, 394, 395, 396, 397, 398, 399, 400, 401, 402, 403, 404, 405, 406, 407
     LINE  1630     408, 409, 410, 411, 412, 413, 414, 415, 416, 417, 418, 419, 420, 421, 422, 423
                    424, 425, 426, 427, 428, 429, 430, 431, 432, 433, 434, 435, 436, 437, 438, 439
                    440, 441, 442, 443, 444, 445, 446, 447, 448, 449, 450, 451, 452, 453, 454, 455
                    456, 457, 458, 459, 460, 461, 462, 463, 464, 465, 466, 467, 468, 469, 470, 471
                    472, 473, 474, 475, 476, 477, 478, 479, 480, 481, 482, 483, 484, 485, 486, 487
     LINE  1635     488, 489, 490, 491, 492, 493, 494, 495, 496, 497, 498, 499, 500, 501, 502, 503
                    504, 505, 506, 507, 508, 509, 510, 511, 512, 513, 514, 515, 516, 517, 518, 519
                    520, 521, 522, 523, 524
                    *Elset, elset=BRIDGE_ASSEMBLY_BRIDGE_1_BRIDGE_DECK_ELEMENTS
                    2, 3, 4, 5, 6, 7, 8, 9, 10, 11, 12, 13, 14, 15, 16, 17
     LINE  1640     18, 19, 20, 21, 22, 23, 24, 25, 26, 27, 28, 29, 30, 31, 32, 33
                    34, 35, 36, 37, 38, 39, 40, 41, 42, 43, 44, 45, 46, 47, 48, 49
                    50, 51, 52, 53, 54, 55, 56, 57, 58, 59, 60, 61, 62, 63, 64, 65
                    66, 67, 68, 69, 70, 71, 72, 73, 74, 75, 76, 77, 78, 79, 80, 81
                    82, 83, 84, 85, 86, 87, 88, 89, 90, 91, 92, 93, 94, 95, 96, 97
     LINE  1645     98, 99, 100, 101, 102, 103, 104, 105, 106, 107, 108, 109, 110, 111, 112, 113
                    114, 115, 116, 117, 118, 119, 120, 121, 122, 123, 124, 125, 126, 127, 128, 129
                    130, 131, 132, 133, 134, 135, 136, 137, 138, 139, 140, 141, 142, 143, 144, 145
                    146, 147, 148, 149, 150, 151, 152, 153, 154, 155, 156, 157, 158, 159, 160, 161
                    162, 163, 164, 165, 166, 167, 168, 169, 170, 171, 172, 173, 174, 175, 176, 177
     LINE  1650     178, 179, 180, 181, 182, 183, 184, 185, 186, 187, 188, 189, 190, 191, 192, 193
                    194, 195, 196, 197, 198, 199, 200, 201, 202, 203, 204, 205, 206, 207, 208, 209
                    210, 211, 212, 213, 214, 215, 216, 217, 218, 219, 220, 221, 222, 223, 224, 225
                    226, 227, 228, 229, 230, 231, 232, 233, 234, 235, 236, 237, 238, 239, 240, 241
                    242, 243, 244, 245, 246, 247, 248, 249, 250, 251, 252, 253, 254, 255, 256, 257
     LINE  1655     258, 259, 260, 261, 262, 263, 264, 265, 266, 267, 268, 269, 270, 271, 272, 273
                    274, 275, 276, 277, 278, 279, 280, 281, 282, 283, 284, 285, 286, 287, 288, 289
                    290, 291, 292, 293, 294, 295, 296, 297, 298, 299, 300, 301, 302, 303, 304, 305
                    306, 307, 308, 309, 310, 311, 312, 313, 314, 315, 316, 317, 318, 319, 320, 321
                    322, 323, 324, 325, 326, 327, 328, 329, 330, 331, 332, 333, 334, 335, 336, 337
     LINE  1660     338, 339, 340, 341, 342, 343, 344, 345, 346, 347, 348, 349, 350, 351, 352, 353
                    354, 355, 356, 357, 358, 359
                    *Elset, elset=BRIDGE_ASSEMBLY_BRIDGE_1_CABLE_BRIDGE_DECK_ELEMENTS
                    2, 3, 4, 5, 6, 7, 8, 9, 10, 11, 12, 13, 14, 15, 16, 17
                    18, 19, 20, 21, 22, 23, 24, 25, 26, 27, 28, 29, 30, 31, 32, 33
     LINE  1665     34, 35, 36, 37, 38, 39, 40, 41, 42, 43, 44, 45, 46, 47, 48, 49
                    50, 51, 52, 53, 54, 55, 56, 57, 58, 59, 60, 61, 62, 63, 64, 65
                    66, 67, 68, 69, 70, 71, 72, 73, 74, 75, 76, 77, 78, 79, 80, 81
                    82, 83, 84, 85, 86, 87, 88, 89, 90, 91, 92, 93, 94, 95, 96, 97
                    98, 99, 100, 101, 102, 103, 104, 105, 106, 107, 108, 109, 110, 111, 112, 113
     LINE  1670     114, 115, 116, 117, 118, 119, 120, 121, 122, 123, 124, 125, 126, 127, 128, 129
                    130, 131, 132, 133, 134, 135, 136, 137, 138, 139, 140, 141, 142, 143, 144, 145
                    146, 147, 148, 149, 150, 151, 152, 153, 154, 155, 156, 157, 158, 159, 160, 161
                    162, 163, 164, 165, 166, 167, 168, 169, 170, 171, 172, 173, 174, 175, 176, 177
                    178, 179, 180, 181, 182, 183, 184, 185, 186, 187, 188, 189, 190, 191, 192, 193
     LINE  1675     194, 195, 196, 197, 198, 199, 200, 201, 202, 203, 204, 205, 206, 207, 208, 209
                    210, 211, 212, 213, 214, 215, 216, 217, 218, 219, 220, 221, 222, 223, 224, 225
                    226, 227, 228, 229, 230, 231, 232, 233, 234, 235, 236, 237, 238, 239, 240, 241
                    242, 243, 244, 245, 246, 247, 248, 249, 250, 251, 252, 253, 254, 255, 256, 257
                    258, 259, 260, 261, 262, 263, 264, 265, 266, 267, 268, 269, 270, 271, 272, 273
     LINE  1680     274, 275, 276, 277, 278, 279, 280, 281, 282, 283, 284, 285, 286, 287, 288, 289
                    290, 291, 292, 293, 294, 295, 296, 297, 298, 299, 300, 301, 302, 303, 304, 305
                    306, 307, 308, 309, 310, 311, 312, 313, 314, 315, 316, 317, 318, 319, 320, 321
                    322, 323, 324, 325, 326, 327, 328, 329, 330, 331, 332, 333, 334, 335, 336, 337
                    338, 339, 340, 341, 342, 343, 344, 345, 346, 347, 348, 349, 350, 351, 352, 353
     LINE  1685     354, 355, 356, 357, 358, 359
                    *Elset, elset=BRIDGE_ASSEMBLY_BRIDGE_1_EAST_NORTH_CABLE_ELEMENTS
                    751, 752, 753, 754, 755, 756, 757, 758
                    *Elset, elset=BRIDGE_ASSEMBLY_BRIDGE_1_EAST_SOUTH_CABLE_ELEMENTS
                    759, 760, 761, 762, 763, 764, 765, 766, 767, 768, 769, 770, 771
     LINE  1690     *Elset, elset=BRIDGE_ASSEMBLY_BRIDGE_1_MAIN_TOWER_EAST_BOTTOM_ELEMENTS
                    524, 525, 526, 527, 528, 529, 530, 531, 532, 533, 534, 535, 536, 537, 538, 539
                    540, 541, 542, 543, 544, 545, 546, 547, 548, 549, 550, 551, 552, 553, 554, 555
                    556, 557, 558, 559, 560, 561, 562, 563, 564, 565, 566, 567, 568, 569, 570, 571
                    572, 573
     LINE  1695     *Elset, elset=BRIDGE_ASSEMBLY_BRIDGE_1_MAIN_TOWER_EAST_ELEMENTS
                    524, 525, 526, 527, 528, 529, 530, 531, 532, 533, 534, 535, 536, 537, 538, 539
                    540, 541, 542, 543, 544, 545, 546, 547, 548, 549, 550, 551, 552, 553, 554, 555
                    556, 557, 558, 559, 560, 561, 562, 563, 564, 565, 566, 567, 568, 569, 570, 571
                    572, 573, 574, 575, 576, 577, 578, 579, 580, 581, 582, 583, 584, 585, 586, 587
     LINE  1700     588, 589, 590, 591, 592, 593, 594, 595, 596, 597, 598, 599, 600, 601, 602, 603
                    604, 605, 606, 607, 608, 609, 610, 611, 612, 613, 614, 615, 616, 617, 618, 619
                    620, 621, 622, 623, 624, 625, 626, 627, 628, 629, 630, 631, 632, 633, 634, 635
                    636, 637, 638, 639, 640, 641, 642, 643, 644, 645, 646, 647, 648, 649, 650, 651
                    652, 653, 654, 655, 656, 657, 658, 659, 660, 661, 662, 663, 664, 665, 666, 667
     LINE  1705     668, 669, 670, 671, 672, 673, 674, 675, 676, 677, 678, 679, 680, 681, 682, 683
                    684, 685, 686, 687
                    *Elset, elset=BRIDGE_ASSEMBLY_BRIDGE_1_MAIN_TOWER_EAST_MID_ELEMENTS
                    574, 575, 576, 577, 578, 579, 580, 581, 582, 583, 584, 585, 586, 587, 588, 589
                    590, 591, 592, 593, 594, 595, 596, 597, 598, 599, 600, 601, 602, 603, 604, 605
     LINE  1710     606, 607, 608, 609, 610, 611, 612, 613, 614, 615, 616
                    *Elset, elset=BRIDGE_ASSEMBLY_BRIDGE_1_MAIN_TOWER_EAST_TOP_ELEMENTS
                    654, 655, 656, 657, 658, 659, 660, 661, 662, 663, 664, 665, 666, 667, 668, 669
                    670, 671, 672, 673, 674, 675, 676, 677, 678, 679, 680, 681, 682, 683, 684, 685
                    686, 687
     LINE  1715     *Elset, elset=BRIDGE_ASSEMBLY_BRIDGE_1_MAIN_TOWER_EAST_UPPER_ELEMENTS
                    617, 618, 619, 620, 621, 622, 623, 624, 625, 626, 627, 628, 629, 630, 631, 632
                    633, 634, 635, 636, 637, 638, 639, 640, 641, 642, 643, 644, 645, 646, 647, 648
                    649, 650, 651, 652, 653
                    *Elset, elset=BRIDGE_ASSEMBLY_BRIDGE_1_MAIN_TOWER_LOWER_COUPLING_ELEMENTS
     LINE  1720     688, 689, 690, 691, 692, 693, 694, 695, 696, 697, 698, 699, 700, 701, 702, 703
                    *Elset, elset=BRIDGE_ASSEMBLY_BRIDGE_1_MAIN_TOWER_MID_COUPLING_ELEMENTS
                    704, 705, 706, 707, 708, 709, 710, 711, 712, 713, 714, 715, 716, 717
                    *Elset, elset=BRIDGE_ASSEMBLY_BRIDGE_1_MAIN_TOWER_UPPER_COUPLING_ELEMENTS
                    718, 719, 720, 721, 722, 723, 724, 725, 726, 727, 728, 729
     LINE  1725     *Elset, elset=BRIDGE_ASSEMBLY_BRIDGE_1_MAIN_TOWER_WEST_BOTTOM_ELEMENTS
                    360, 361, 362, 363, 364, 365, 366, 367, 368, 369, 370, 371, 372, 373, 374, 375
                    376, 377, 378, 379, 380, 381, 382, 383, 384, 385, 386, 387, 388, 389, 390, 391
                    392, 393, 394, 395, 396, 397, 398, 399, 400, 401, 402, 403, 404, 405, 406, 407
                    408, 409
     LINE  1730     *Elset, elset=BRIDGE_ASSEMBLY_BRIDGE_1_MAIN_TOWER_WEST_ELEMENTS
                    360, 361, 362, 363, 364, 365, 366, 367, 368, 369, 370, 371, 372, 373, 374, 375
                    376, 377, 378, 379, 380, 381, 382, 383, 384, 385, 386, 387, 388, 389, 390, 391
                    392, 393, 394, 395, 396, 397, 398, 399, 400, 401, 402, 403, 404, 405, 406, 407
                    408, 409, 410, 411, 412, 413, 414, 415, 416, 417, 418, 419, 420, 421, 422, 423
     LINE  1735     424, 425, 426, 427, 428, 429, 430, 431, 432, 433, 434, 435, 436, 437, 438, 439
                    440, 441, 442, 443, 444, 445, 446, 447, 448, 449, 450, 451, 452, 453, 454, 455
                    456, 457, 458, 459, 460, 461, 462, 463, 464, 465, 466, 467, 468, 469, 470, 471
                    472, 473, 474, 475, 476, 477, 478, 479, 480, 481, 482, 483, 484, 485, 486, 487
                    488, 489, 490, 491, 492, 493, 494, 495, 496, 497, 498, 499, 500, 501, 502, 503
     LINE  1740     504, 505, 506, 507, 508, 509, 510, 511, 512, 513, 514, 515, 516, 517, 518, 519
                    520, 521, 522, 523
                    *Elset, elset=BRIDGE_ASSEMBLY_BRIDGE_1_MAIN_TOWER_WEST_MID_ELEMENTS
                    410, 411, 412, 413, 414, 415, 416, 417, 418, 419, 420, 421, 422, 423, 424, 425
                    426, 427, 428, 429, 430, 431, 432, 433, 434, 435, 436, 437, 438, 439, 440, 441
     LINE  1745     442, 443, 444, 445, 446, 447, 448, 449, 450, 451, 452
                    *Elset, elset=BRIDGE_ASSEMBLY_BRIDGE_1_MAIN_TOWER_WEST_TOP_ELEMENTS
                    490, 491, 492, 493, 494, 495, 496, 497, 498, 499, 500, 501, 502, 503, 504, 505
                    506, 507, 508, 509, 510, 511, 512, 513, 514, 515, 516, 517, 518, 519, 520, 521
                    522, 523
     LINE  1750     *Elset, elset=BRIDGE_ASSEMBLY_BRIDGE_1_MAIN_TOWER_WEST_UPPER_ELEMENTS
                    453, 454, 455, 456, 457, 458, 459, 460, 461, 462, 463, 464, 465, 466, 467, 468
                    469, 470, 471, 472, 473, 474, 475, 476, 477, 478, 479, 480, 481, 482, 483, 484
                    485, 486, 487, 488, 489
                    *Elset, elset=BRIDGE_ASSEMBLY_BRIDGE_1_WEST_NORTH_CABLE_ELEMENTS
     LINE  1755     730, 731, 732, 733, 734, 735, 736, 737
                    *Elset, elset=BRIDGE_ASSEMBLY_BRIDGE_1_WEST_SOUTH_CABLE_ELEMENTS
                    738, 739, 740, 741, 742, 743, 744, 745, 746, 747, 748, 749, 750
                    *surface, type=NODE, name=BRIDGE_ASSEMBLY_BRIDGE_1_CABLE_ANCHOR_WEST_SRF
                    BRIDGE_ASSEMBLY_BRIDGE_1_CABLE_ANCHOR_WEST, 1
     LINE  1760     *surface, type=NODE, name=BRIDGE_ASSEMBLY_BRIDGE_1_CABLE_ANCHOR_EAST_SRF
                    BRIDGE_ASSEMBLY_BRIDGE_1_CABLE_ANCHOR_EAST, 1
                    *surface, type=NODE, name=BRIDGE_ASSEMBLY_BRIDGE_1_CABLE_ANCHOR_BRIDGE
                    BRIDGE_ASSEMBLY_BRIDGE_1_CABLE_ANCHOR_BRIDGE, 1
                    *tie, name=BRIDGE_ASSEMBLY_BRIDGE_1_CABLE_ANCHOR_CONNECTION_WEST, positiontolerance=5.8, adjust=NO
[...]
      66       1507.2         38.823         6.1789         1.0000         0.0000    
      67       1507.2         38.823         6.1789         1.0000         0.0000    
      68       1516.3         38.939         6.1974         1.0000         0.0000    
      69       1549.0         39.357         6.2639         1.0000         0.0000    
      70       1549.0         39.357         6.2639         1.0000         0.0000    
      71       1572.7         39.658         6.3117         1.0000         0.0000    
      72       1579.9         39.748         6.3261         1.0000         0.0000    
      73       1584.8         39.809         6.3358         1.0000         0.0000    
      74       1584.8         39.809         6.3358         1.0000         0.0000    
      75       1602.8         40.035         6.3718         1.0000         0.0000    
      76       1613.6         40.170         6.3932         1.0000         0.0000    
      77       1613.6         40.170         6.3932         1.0000         0.0000    
      78       1634.6         40.430         6.4347         1.0000         0.0000    
      79       1634.6         40.430         6.4347         1.0000         0.0000    
      80       1649.0         40.608         6.4629         1.0000         0.0000    
      81       1819.0         42.650         6.7880         1.0000         0.0000    
      82       1930.1         43.933         6.9922         1.0000         0.0000    
      83       1997.4         44.693         7.1130         1.0000         0.0000    
      84       2004.5         44.772         7.1256         1.0000         0.0000    
      85       2041.9         45.187         7.1918         1.0000         0.0000    
      86       2114.5         45.983         7.3185         1.0000         0.0000    


          P A R T I C I P A T I O N   F A C T O R S

 MODE NO    X-COMPONENT    Y-COMPONENT    Z-COMPONENT    X-ROTATION     Y-ROTATION     Z-ROTATION 

       1     -5.57921E-03    -2974.0        1.79636E-02    1.91664E+05    -5.1594       -5.79104E+05
       2      -255.87        5.46643E-02     1758.3        -4.6064       -4.87937E+05     6.0849    
       3      4.64642E-03     1126.5       -2.76771E-02   -1.81004E+05     7.6432       -1.05617E+05
       4     -3.69590E-02     603.05        3.27781E-02    -57868.        -5.4163        4.76357E+05
       5       428.16        4.73648E-02    -382.87        -4.2727         43702.         36.958    
       6      -829.58       -0.39144         565.11         15.286       -1.86833E+05    -106.71    
       7      0.15325        -1992.2       -0.11270         75975.         37.547       -5.32597E+05
       8      -29.008        1.07752E-03    -8.8605       -7.52242E-02    -961.49        0.70409    
       9      -1288.8        7.92012E-02    -293.54        -5.2619        -43750.         58.368    
      10     -0.23963        -388.58       -6.60443E-02     22747.        -5.6354       -3.46287E+05
      11     -0.28798         42.080       -7.04755E-02     2612.0        -21.594         77349.    
      12       1144.2        9.66037E-03     455.85       -0.13581         80316.         21.066    
      13     -3.02212E-02     64.879       -1.75453E-02    -13363.        -4.5476        2.69900E+05
      14      -167.94        1.85753E-02    -601.29       -0.59993         48746.         5.9870    
      15      1.39432E-02    -1055.1       -2.14880E-02     48132.         3.8689       -3.15952E+05
      16     -0.15390         144.83       -0.17453        -2734.2         13.538        -26673.    
      17       493.51        1.91207E-02     389.37         1.0212        -42612.        -28.408    
      18      -1748.1        3.46650E-02    -165.67        -2.3852        -452.86         32.314    
      19      -779.15        4.99564E-02     31.704        -2.5625         51993.         30.545    
      20      0.12079         331.35       -5.43498E-03    -20499.         1.4325        2.63977E+05
      21       469.81       -9.76979E-03     105.98         1.1842        -10500.        -19.154    
      22     -0.12757        -19.840       -1.42106E-02     8896.2        -4.7485       -1.83568E+05
      23      -1513.3       -3.73478E-03    -540.78        0.10352        -77892.         1.2728    
      24      0.62742         9.0540       -2.76492E-02    -535.23        -16.802         15402.    
      25       913.56       -9.41217E-03    -868.64        0.50167         81979.        -8.2434    
      26      -229.09        4.33177E-02    -639.58        -1.7933         91711.         23.913    
      27      -2.9903        -9.3253         64.839         390.58        -76687.        -3210.0    
      28     -0.27055         757.97        0.76619        -31740.        -919.15        2.60480E+05
      29     -0.32260         124.85        2.34147E-02    -3174.5        -4.5305         59223.    
      30      -1640.0        6.15525E-03     215.93       -0.28547        -94326.        0.80955    
      31      -975.31       -0.37071        -30.645         14.070         17620.        -122.46    
      32       5.3517       -5.27237E-02    -303.65         2.3479         39223.        -11.306    
      33      0.35093        -85.872       -4.68656E-02    -2851.8         48.056         91186.    
      34      -92.744        3.48398E-02     95.700       -0.86592        -82504.         40.800    
      35     -5.33287E-02    -57.805       -0.11310        -1669.9        -3.2370        -32824.    
      36       162.12       -6.12572E-03     71.196        -1.9656         2817.1         23.110    
      37       50.894        1.18185E-03    -66.894        1.89423E-03    -2158.4        -4.5368    
      38       31.365        9.59111E-03    -15.230       -0.56387        -18243.         13.684    
      39       162.50        6.29950E-02     214.54        -1.5655       -1.62073E+05     38.487    
      40     -0.67573        -104.20        3.99915E-02     685.92        -161.47         54319.    
      41      -388.98        6.72553E-02    -762.80       -0.58727        1.95277E+05    -40.348    
      42      -1.2641         396.78         3.4338        -93.304        -1741.2         55830.    
      43      -503.16       -0.77527         1329.4        -12.056       -6.87412E+05    -55.182    
      44     -0.16914         128.68        0.39634         10072.        -221.86         17909.    
      45      4.27009E-02    -264.17        0.22928         7052.0        -27.560        -71719.    
      46     -0.37486        -77.419       -0.13709        -3720.2        -812.35        -5617.2    
      47       56.835       -0.42402         4.1986        -27.883        1.28605E+05    -18.206    
      48      -18.746        3.68308E-03     94.944        0.15398        -17337.         1.9403    
      49     -8.29940E-02    -615.67        0.11766         6327.0        -76.616       -2.32812E+05
      50      0.32623        -278.93        1.32234E-02     10848.        -57.197       -1.16133E+05
      51       754.76        6.94376E-02    -1009.3        -4.0979         85777.         29.235    
      52      -584.77        7.87037E-02    -1534.3       -0.83076        1.32310E+05     20.282    
      53     -8.74659E-02     168.71        0.26228        -9195.1        -4.2217         49137.    
      54       651.63        0.35539         685.35        -8.1053         19555.         139.72    
      55     -0.38225         352.87       -0.70016        -8947.1         42.121        1.70476E+05
      56      0.16800         72.174       -7.43806E-02    -1099.4         103.88        1.14726E+05
      57       499.92       -6.28623E-02    -23.951         1.7323         32488.        -39.590    
      58     -2.87411E-02     7.9194       -6.86483E-02     5044.3         7.8325         16799.    
      59      -445.22        6.77473E-03     996.96        0.49523        -59761.         6.6169    
      60      -41.668       -5.05834E-04    -105.57        0.14226         8176.2        0.22185    
      61     -0.15295        -314.51        0.13452         10741.        -89.687       -1.17451E+05
      62      -422.34        0.14320        -258.41        -3.7875         18313.         54.284    
      63      -288.60       -6.26099E-02     81.331        -1.3858        -26398.        -43.206    
      64      3.54519E-02    5.80548E-06    0.21211       -8.36384E-04    -15.384       -2.44597E-04
      65      1.07697E-03   -0.13160        1.69974E-04    -27.665       -4.86167E-02    -156.13    
      66     -9.03232E-04    0.76386       -3.03592E-03     106.91        0.90044         845.51    
      67      5.78997E-02    2.52300E-06    0.16277        2.17712E-04    -12.246        2.05011E-03
      68      1.11296E-02    -52.072        0.21627        -5420.7        -63.661        -52229.    
      69      0.12757       -2.03601E-05    7.71042E-02   -6.98866E-04    -1.2228       -1.36433E-02
      70     -1.56073E-03   -0.40379        2.17445E-03     4.3131       -0.60652        -249.04    
      71      -280.93        0.59761         203.87        -13.431        -51407.         321.03    
      72      0.82772         173.50       -0.93351        -7171.5         282.31         82836.    
      73     -0.12708       -9.97381E-04    0.23205        5.83654E-02    -53.037       -0.41712    
      74     -4.49639E-03    0.29245        2.93998E-03    -27.437       -0.73601         85.088    
      75     -0.38827         103.97        0.16449        -9935.6        -33.158         27997.    
      76      4.70313E-02    1.46478E-04    0.10705       -1.46184E-02    -37.235        3.41818E-02
      77     -1.22888E-04    4.61565E-02    5.33954E-05    -4.9280       -1.14369E-02     13.280    
      78     -0.21753       -7.02277E-05   -0.11635        6.05998E-03     65.620       -1.84364E-02
      79      3.66133E-04   -0.18732       -7.71464E-06     19.694       -2.32000E-02    -34.717    
      80       129.13        2.32032E-02     54.405        -1.8723        -28787.         6.5616    
      81      1.34718E-02     10.039       -0.18813         4091.2         90.816         24706.    
      82      9.48046E-02     83.560       -0.10822        -2096.4         54.701         25764.    
      83      -8.6530        2.33907E-02    -33.871        -1.1347         160.50         12.682    
      84     -0.28992        -218.83        0.11452         9912.7        -71.276       -1.15652E+05
      85      -168.10       -0.19614         125.49         6.3279        -56930.        -94.072    
      86     -9.89376E-02     16.578        0.10299         428.55        -47.448         1433.8    


                    E F F E C T I V E   M A S S

 MODE NO    X-COMPONENT    Y-COMPONENT    Z-COMPONENT    X-ROTATION     Y-ROTATION     Z-ROTATION 

       1      3.11276E-05    8.84473E+06    3.22692E-04    3.67351E+10     26.619        3.35362E+11
       2       65470.        2.98818E-03    3.09167E+06     21.219        2.38082E+11     37.026    
       3      2.15893E-05    1.26893E+06    7.66022E-04    3.27625E+10     58.418        1.11549E+10
       4      1.36597E-03    3.63665E+05    1.07440E-03    3.34866E+09     29.336        2.26916E+11
       5      1.83321E+05    2.24342E-03    1.46591E+05     18.256        1.90983E+09     1365.9    
       6      6.88201E+05    0.15322        3.19351E+05     233.66        3.49065E+10     11388.    
       7      2.34846E-02    3.96881E+06    1.27018E-02    5.77227E+09     1409.8        2.83660E+11
       8       841.44        1.16104E-06     78.508        5.65868E-03    9.24454E+05    0.49574    
       9      1.66111E+06    6.27283E-03     86164.         27.687        1.91407E+09     3406.9    
      10      5.74234E-02    1.50998E+05    4.36185E-03    5.17445E+08     31.757        1.19915E+11
      11      8.29321E-02     1770.7        4.96680E-03    6.82234E+06     466.31        5.98289E+09
      12      1.30912E+06    9.33228E-05    2.07799E+05    1.84443E-02    6.45058E+09     443.79    
      13      9.13319E-04     4209.3        3.07836E-04    1.78580E+08     20.680        7.28459E+10
      14       28206.        3.45040E-04    3.61549E+05    0.35991        2.37616E+09     35.844    
      15      1.94412E-04    1.11333E+06    4.61734E-04    2.31669E+09     14.968        9.98254E+10
      16      2.36857E-02     20977.        3.04596E-02    7.47588E+06     183.29        7.11446E+08
      17      2.43551E+05    3.65602E-04    1.51608E+05     1.0429        1.81581E+09     807.02    
      18      3.05588E+06    1.20167E-03     27447.         5.6890        2.05086E+05     1044.2    
      19      6.07070E+05    2.49565E-03     1005.1         6.5663        2.70325E+09     933.02    
      20      1.45899E-02    1.09794E+05    2.95390E-05    4.20228E+08     2.0521        6.96841E+10
      21      2.20722E+05    9.54487E-05     11232.         1.4023        1.10258E+08     366.87    
      22      1.62731E-02     393.63        2.01940E-04    7.91418E+07     22.548        3.36971E+10
      23      2.29014E+06    1.39486E-05    2.92439E+05    1.07154E-02    6.06715E+09     1.6201    
      24      0.39366         81.975        7.64477E-04    2.86476E+05     282.32        2.37222E+08
      25      8.34585E+05    8.85889E-05    7.54533E+05    0.25168        6.72055E+09     67.954    
      26       52483.        1.87642E-03    4.09058E+05     3.2160        8.41084E+09     571.83    
      27       8.9419         86.962         4204.2        1.52553E+05    5.88093E+09    1.03042E+07
      28      7.31949E-02    5.74524E+05    0.58705        1.00743E+09    8.44832E+05    6.78496E+10
      29      0.10407         15588.        5.48249E-04    1.00778E+07     20.525        3.50736E+09
      30      2.68966E+06    3.78871E-05     46625.        8.14951E-02    8.89738E+09    0.65537    
      31      9.51226E+05    0.13743         939.09         197.97        3.10454E+08     14997.    
      32       28.640        2.77979E-03     92204.         5.5128        1.53845E+09     127.82    
      33      0.12315         7374.1        2.19639E-03    8.13293E+06     2309.4        8.31489E+09
      34       8601.5        1.21381E-03     9158.4        0.74982        6.80698E+09     1664.7    
      35      2.84395E-03     3341.5        1.27909E-02    2.78862E+06     10.478        1.07743E+09
      36       26284.        3.75245E-05     5068.9         3.8637        7.93595E+06     534.08    
      37       2590.2        1.39677E-06     4474.8        3.58812E-06    4.65860E+06     20.583    
      38       983.75        9.19894E-05     231.95        0.31794        3.32801E+08     187.24    
      39       26407.        3.96837E-03     46025.         2.4508        2.62677E+10     1481.3    
      40      0.45660         10858.        1.59932E-03    4.70487E+05     26072.        2.95054E+09
      41      1.51305E+05    4.52328E-03    5.81859E+05    0.34489        3.81331E+10     1627.9    
      42       1.5981        1.57431E+05     11.791         8705.6        3.03184E+06    3.11697E+09
      43      2.53174E+05    0.60104        1.76728E+06     145.35        4.72536E+11     3045.0    
      44      2.86099E-02     16559.        0.15708        1.01441E+08     49220.        3.20745E+08
      45      1.82337E-03     69784.        5.25685E-02    4.97310E+07     759.53        5.14363E+09
      46      0.14052         5993.7        1.87933E-02    1.38397E+07    6.59911E+05    3.15528E+07
      47       3230.2        0.17979         17.628         777.47        1.65391E+10     331.47    
      48       351.42        1.35651E-05     9014.3        2.37107E-02    3.00567E+08     3.7649    
      49      6.88800E-03    3.79051E+05    1.38437E-02    4.00307E+07     5870.0        5.42012E+10
      50      0.10642         77804.        1.74859E-04    1.17683E+08     3271.5        1.34869E+10
      51      5.69664E+05    4.82158E-03    1.01879E+06     16.792        7.35767E+09     854.68    
      52      3.41959E+05    6.19427E-03    2.35422E+06    0.69017        1.75061E+10     411.35    
      53      7.65028E-03     28461.        6.87910E-02    8.45506E+07     17.822        2.41441E+09
      54      4.24620E+05    0.12630        4.69704E+05     65.696        3.82387E+08     19521.    
      55      0.14611        1.24517E+05    0.49022        8.00511E+07     1774.2        2.90620E+10
      56      2.82247E-02     5209.1        5.53248E-03    1.20876E+06     10791.        1.31620E+10
      57      2.49924E+05    3.95166E-03     573.64         3.0010        1.05546E+09     1567.4    
      58      8.26052E-04     62.718        4.71259E-03    2.54451E+07     61.348        2.82219E+08
      59      1.98224E+05    4.58970E-05    9.93923E+05    0.24525        3.57135E+09     43.784    
      60       1736.2        2.55868E-07     11146.        2.02375E-02    6.68504E+07    4.92153E-02
      61      2.33937E-02     98917.        1.80962E-02    1.15363E+08     8043.7        1.37946E+10
      62      1.78369E+05    2.05055E-02     66776.         14.345        3.35364E+08     2946.8    
      63       83291.        3.92000E-03     6614.8         1.9204        6.96843E+08     1866.7    
      64      1.25684E-03    3.37036E-11    4.49914E-02    6.99539E-07     236.66        5.98278E-08
      65      1.15987E-06    1.73197E-02    2.88911E-08     765.33        2.36358E-03     24378.    
      66      8.15828E-07    0.58348        9.21683E-06     11431.        0.81078        7.14895E+05
      67      3.35238E-03    6.36551E-12    2.64931E-02    4.73983E-08     149.96        4.20296E-06
      68      1.23868E-04     2711.5        4.67738E-02    2.93836E+07     4052.7        2.72788E+09
      69      1.62736E-02    4.14535E-10    5.94506E-03    4.88414E-07     1.4953        1.86138E-04
      70      2.43588E-06    0.16305        4.72822E-06     18.603        0.36787         62021.    
      71       78922.        0.35714         41563.         180.40        2.64265E+09    1.03059E+05
      72      0.68512         30101.        0.87144        5.14310E+07     79697.        6.86187E+09
      73      1.61503E-02    9.94770E-07    5.38491E-02    3.40651E-03     2812.9        0.17399    
      74      2.02175E-05    8.55279E-02    8.64348E-06     752.78        0.54171         7240.0    
      75      0.15075         10810.        2.70555E-02    9.87166E+07     1099.4        7.83851E+08
      76      2.21194E-03    2.14559E-08    1.14595E-02    2.13696E-04     1386.4        1.16840E-03
      77      1.51015E-08    2.13042E-03    2.85107E-09     24.286        1.30802E-04     176.36    
      78      4.73189E-02    4.93193E-09    1.35383E-02    3.67234E-05     4306.0        3.39899E-04
      79      1.34053E-07    3.50904E-02    5.95157E-11     387.87        5.38239E-04     1205.3    
      80       16675.        5.38386E-04     2959.9         3.5055        8.28667E+08     43.054    
      81      1.81490E-04     100.79        3.53945E-02    1.67382E+07     8247.6        6.10395E+08
      82      8.98791E-03     6982.2        1.17106E-02    4.39503E+06     2992.2        6.63770E+08
      83       74.874        5.47125E-04     1147.2         1.2875         25759.         160.84    
      84      8.40564E-02     47887.        1.31151E-02    9.82620E+07     5080.2        1.33754E+10
      85       28258.        3.84716E-02     15749.         40.043        3.24101E+09     8849.5    
      86      9.78864E-03     274.82        1.06060E-02    1.83659E+05     2251.3        2.05575E+06

 TOTAL        1.75263E+07    1.75221E+07    1.34108E+07    8.41028E+10    9.26713E+11    1.50374E+12


          THE ANALYSIS HAS BEEN COMPLETED



                              ANALYSIS COMPLETE
                              WITH     43 WARNING MESSAGES ON THE DAT FILE



     JOB TIME SUMMARY
       USER TIME (SEC)      =  0.10000    
       SYSTEM TIME (SEC)    =   0.0000    
       TOTAL CPU TIME (SEC) =  0.10000    
       WALLCLOCK TIME (SEC) =          0
